$ Spice netlist generated by v2lvs
$ v2013.2_18.13    Thu May 16 11:29:55 PDT 2013
.INCLUDE "inputs/adk/stdcells.spi" 

.SUBCKT RAM8 CLK EN VPWR VGND A[2] A[1] A[0] Di[31] Di[30] Di[29] Di[28] Di[27] 
+ Di[26] Di[25] Di[24] Di[23] Di[22] Di[21] Di[20] Di[19] Di[18] Di[17] Di[16] 
+ Di[15] Di[14] Di[13] Di[12] Di[11] Di[10] Di[9] Di[8] Di[7] Di[6] Di[5] Di[4] 
+ Di[3] Di[2] Di[1] Di[0] Do[31] Do[30] Do[29] Do[28] Do[27] Do[26] Do[25] 
+ Do[24] Do[23] Do[22] Do[21] Do[20] Do[19] Do[18] Do[17] Do[16] Do[15] Do[14] 
+ Do[13] Do[12] Do[11] Do[10] Do[9] Do[8] Do[7] Do[6] Do[5] Do[4] Do[3] Do[2] 
+ Do[1] Do[0] WE[3] WE[2] WE[1] WE[0] VPWR.extra7 VPWR.extra6 VPWR.extra5
+ VPWR.extra4 VPWR.extra3 VPWR.extra2 VPWR.extra1 VGND.extra6 VGND.extra5 
+ VGND.extra4 VGND.extra3 VGND.extra2 VGND.extra1 
XCLKBUF CLK VGND VGND VPWR VPWR WORD[0].W.CLK sky130_fd_sc_hd__clkbuf_2 
XDEC.ABUF[0] A[0] VGND VGND VPWR VPWR DEC.A_buf[0] sky130_fd_sc_hd__clkbuf_2 
XDEC.ABUF[1] A[1] VGND VGND VPWR VPWR DEC.A_buf[1] sky130_fd_sc_hd__clkbuf_2 
XDEC.ABUF[2] A[2] VGND VGND VPWR VPWR DEC.A_buf[2] sky130_fd_sc_hd__clkbuf_2 
XDEC.AND0 DEC.A_buf[0] DEC.A_buf[1] DEC.A_buf[2] DEC.EN_buf VGND VGND VPWR VPWR 
+ WORD[0].W.SEL sky130_fd_sc_hd__nor4b_2 
XDEC.AND1 DEC.A_buf[2] DEC.A_buf[1] DEC.A_buf[0] DEC.EN_buf VGND VGND VPWR VPWR 
+ WORD[1].W.SEL sky130_fd_sc_hd__and4bb_2 
XDEC.AND2 DEC.A_buf[2] DEC.A_buf[0] DEC.A_buf[1] DEC.EN_buf VGND VGND VPWR VPWR 
+ WORD[2].W.SEL sky130_fd_sc_hd__and4bb_2 
XDEC.AND3 DEC.A_buf[2] DEC.A_buf[1] DEC.A_buf[0] DEC.EN_buf VGND VGND VPWR VPWR 
+ WORD[3].W.SEL sky130_fd_sc_hd__and4b_2 
XDEC.AND4 DEC.A_buf[0] DEC.A_buf[1] DEC.A_buf[2] DEC.EN_buf VGND VGND VPWR VPWR 
+ WORD[4].W.SEL sky130_fd_sc_hd__and4bb_2 
XDEC.AND5 DEC.A_buf[1] DEC.A_buf[0] DEC.A_buf[2] DEC.EN_buf VGND VGND VPWR VPWR 
+ WORD[5].W.SEL sky130_fd_sc_hd__and4b_2 
XDEC.AND6 DEC.A_buf[0] DEC.A_buf[1] DEC.A_buf[2] DEC.EN_buf VGND VGND VPWR VPWR 
+ WORD[6].W.SEL sky130_fd_sc_hd__and4b_2 
XDEC.AND7 DEC.A_buf[0] DEC.A_buf[1] DEC.A_buf[2] DEC.EN_buf VGND VGND VPWR VPWR 
+ WORD[7].W.SEL sky130_fd_sc_hd__and4_2 
XDEC.ENBUF EN VGND VGND VPWR VPWR DEC.EN_buf sky130_fd_sc_hd__clkbuf_2 
XWEBUF[0] WE[0] VGND VGND VPWR VPWR WORD[0].W.B0.WE sky130_fd_sc_hd__clkbuf_2 
XWEBUF[1] WE[1] VGND VGND VPWR VPWR WORD[0].W.B1.WE sky130_fd_sc_hd__clkbuf_2 
XWEBUF[2] WE[2] VGND VGND VPWR VPWR WORD[0].W.B2.WE sky130_fd_sc_hd__clkbuf_2 
XWEBUF[3] WE[3] VGND VGND VPWR VPWR WORD[0].W.B3.WE sky130_fd_sc_hd__clkbuf_2 
XWORD[0].W.B0.BIT[0].LATCH Di[0] WORD[0].W.B0.GCLK VGND VGND VPWR VPWR 
+ WORD[0].W.B0.q_wire[0] sky130_fd_sc_hd__dlxtp_1 
XWORD[0].W.B0.BIT[0].OBUF WORD[0].W.B0.q_wire[0] WORD[0].W.B0.SEL_B VGND VGND 
+ VPWR VPWR Do[0] sky130_fd_sc_hd__ebufn_2 
XWORD[0].W.B0.BIT[1].LATCH Di[1] WORD[0].W.B0.GCLK VGND VGND VPWR VPWR 
+ WORD[0].W.B0.q_wire[1] sky130_fd_sc_hd__dlxtp_1 
XWORD[0].W.B0.BIT[1].OBUF WORD[0].W.B0.q_wire[1] WORD[0].W.B0.SEL_B VGND VGND 
+ VPWR VPWR Do[1] sky130_fd_sc_hd__ebufn_2 
XWORD[0].W.B0.BIT[2].LATCH Di[2] WORD[0].W.B0.GCLK VGND VGND VPWR VPWR 
+ WORD[0].W.B0.q_wire[2] sky130_fd_sc_hd__dlxtp_1 
XWORD[0].W.B0.BIT[2].OBUF WORD[0].W.B0.q_wire[2] WORD[0].W.B0.SEL_B VGND VGND 
+ VPWR VPWR Do[2] sky130_fd_sc_hd__ebufn_2 
XWORD[0].W.B0.BIT[3].LATCH Di[3] WORD[0].W.B0.GCLK VGND VGND VPWR VPWR 
+ WORD[0].W.B0.q_wire[3] sky130_fd_sc_hd__dlxtp_1 
XWORD[0].W.B0.BIT[3].OBUF WORD[0].W.B0.q_wire[3] WORD[0].W.B0.SEL_B VGND VGND 
+ VPWR VPWR Do[3] sky130_fd_sc_hd__ebufn_2 
XWORD[0].W.B0.BIT[4].LATCH Di[4] WORD[0].W.B0.GCLK VGND VGND VPWR VPWR 
+ WORD[0].W.B0.q_wire[4] sky130_fd_sc_hd__dlxtp_1 
XWORD[0].W.B0.BIT[4].OBUF WORD[0].W.B0.q_wire[4] WORD[0].W.B0.SEL_B VGND VGND 
+ VPWR VPWR Do[4] sky130_fd_sc_hd__ebufn_2 
XWORD[0].W.B0.BIT[5].LATCH Di[5] WORD[0].W.B0.GCLK VGND VGND VPWR VPWR 
+ WORD[0].W.B0.q_wire[5] sky130_fd_sc_hd__dlxtp_1 
XWORD[0].W.B0.BIT[5].OBUF WORD[0].W.B0.q_wire[5] WORD[0].W.B0.SEL_B VGND VGND 
+ VPWR VPWR Do[5] sky130_fd_sc_hd__ebufn_2 
XWORD[0].W.B0.BIT[6].LATCH Di[6] WORD[0].W.B0.GCLK VGND VGND VPWR VPWR 
+ WORD[0].W.B0.q_wire[6] sky130_fd_sc_hd__dlxtp_1 
XWORD[0].W.B0.BIT[6].OBUF WORD[0].W.B0.q_wire[6] WORD[0].W.B0.SEL_B VGND VGND 
+ VPWR VPWR Do[6] sky130_fd_sc_hd__ebufn_2 
XWORD[0].W.B0.BIT[7].LATCH Di[7] WORD[0].W.B0.GCLK VGND VGND VPWR VPWR 
+ WORD[0].W.B0.q_wire[7] sky130_fd_sc_hd__dlxtp_1 
XWORD[0].W.B0.BIT[7].OBUF WORD[0].W.B0.q_wire[7] WORD[0].W.B0.SEL_B VGND VGND 
+ VPWR VPWR Do[7] sky130_fd_sc_hd__ebufn_2 
XWORD[0].W.B0.CG WORD[0].W.B0.CLK_B WORD[0].W.B0.we_wire VGND VGND VPWR VPWR 
+ WORD[0].W.B0.GCLK sky130_fd_sc_hd__dlclkp_1 
XWORD[0].W.B0.CGAND WORD[0].W.B0.SEL WORD[0].W.B0.WE VGND VGND VPWR VPWR 
+ WORD[0].W.B0.we_wire sky130_fd_sc_hd__and2_1 
XWORD[0].W.B0.CLKINV WORD[0].W.B0.CLK VGND VGND VPWR VPWR WORD[0].W.B0.CLK_B 
+ sky130_fd_sc_hd__inv_1 
XWORD[0].W.B0.SELINV WORD[0].W.B0.SEL VGND VGND VPWR VPWR WORD[0].W.B0.SEL_B 
+ sky130_fd_sc_hd__inv_1 
XWORD[0].W.B1.BIT[0].LATCH Di[8] WORD[0].W.B1.GCLK VGND VGND VPWR VPWR 
+ WORD[0].W.B1.q_wire[0] sky130_fd_sc_hd__dlxtp_1 
XWORD[0].W.B1.BIT[0].OBUF WORD[0].W.B1.q_wire[0] WORD[0].W.B1.SEL_B VGND VGND 
+ VPWR VPWR Do[8] sky130_fd_sc_hd__ebufn_2 
XWORD[0].W.B1.BIT[1].LATCH Di[9] WORD[0].W.B1.GCLK VGND VGND VPWR VPWR 
+ WORD[0].W.B1.q_wire[1] sky130_fd_sc_hd__dlxtp_1 
XWORD[0].W.B1.BIT[1].OBUF WORD[0].W.B1.q_wire[1] WORD[0].W.B1.SEL_B VGND VGND 
+ VPWR VPWR Do[9] sky130_fd_sc_hd__ebufn_2 
XWORD[0].W.B1.BIT[2].LATCH Di[10] WORD[0].W.B1.GCLK VGND VGND VPWR VPWR 
+ WORD[0].W.B1.q_wire[2] sky130_fd_sc_hd__dlxtp_1 
XWORD[0].W.B1.BIT[2].OBUF WORD[0].W.B1.q_wire[2] WORD[0].W.B1.SEL_B VGND VGND 
+ VPWR VPWR Do[10] sky130_fd_sc_hd__ebufn_2 
XWORD[0].W.B1.BIT[3].LATCH Di[11] WORD[0].W.B1.GCLK VGND VGND VPWR VPWR 
+ WORD[0].W.B1.q_wire[3] sky130_fd_sc_hd__dlxtp_1 
XWORD[0].W.B1.BIT[3].OBUF WORD[0].W.B1.q_wire[3] WORD[0].W.B1.SEL_B VGND VGND 
+ VPWR VPWR Do[11] sky130_fd_sc_hd__ebufn_2 
XWORD[0].W.B1.BIT[4].LATCH Di[12] WORD[0].W.B1.GCLK VGND VGND VPWR VPWR 
+ WORD[0].W.B1.q_wire[4] sky130_fd_sc_hd__dlxtp_1 
XWORD[0].W.B1.BIT[4].OBUF WORD[0].W.B1.q_wire[4] WORD[0].W.B1.SEL_B VGND VGND 
+ VPWR VPWR Do[12] sky130_fd_sc_hd__ebufn_2 
XWORD[0].W.B1.BIT[5].LATCH Di[13] WORD[0].W.B1.GCLK VGND VGND VPWR VPWR 
+ WORD[0].W.B1.q_wire[5] sky130_fd_sc_hd__dlxtp_1 
XWORD[0].W.B1.BIT[5].OBUF WORD[0].W.B1.q_wire[5] WORD[0].W.B1.SEL_B VGND VGND 
+ VPWR VPWR Do[13] sky130_fd_sc_hd__ebufn_2 
XWORD[0].W.B1.BIT[6].LATCH Di[14] WORD[0].W.B1.GCLK VGND VGND VPWR VPWR 
+ WORD[0].W.B1.q_wire[6] sky130_fd_sc_hd__dlxtp_1 
XWORD[0].W.B1.BIT[6].OBUF WORD[0].W.B1.q_wire[6] WORD[0].W.B1.SEL_B VGND VGND 
+ VPWR VPWR Do[14] sky130_fd_sc_hd__ebufn_2 
XWORD[0].W.B1.BIT[7].LATCH Di[15] WORD[0].W.B1.GCLK VGND VGND VPWR VPWR 
+ WORD[0].W.B1.q_wire[7] sky130_fd_sc_hd__dlxtp_1 
XWORD[0].W.B1.BIT[7].OBUF WORD[0].W.B1.q_wire[7] WORD[0].W.B1.SEL_B VGND VGND 
+ VPWR VPWR Do[15] sky130_fd_sc_hd__ebufn_2 
XWORD[0].W.B1.CG WORD[0].W.B1.CLK_B WORD[0].W.B1.we_wire VGND VGND VPWR VPWR 
+ WORD[0].W.B1.GCLK sky130_fd_sc_hd__dlclkp_1 
XWORD[0].W.B1.CGAND WORD[0].W.B0.SEL WORD[0].W.B1.WE VGND VGND VPWR VPWR 
+ WORD[0].W.B1.we_wire sky130_fd_sc_hd__and2_1 
XWORD[0].W.B1.CLKINV WORD[0].W.B0.CLK VGND VGND VPWR VPWR WORD[0].W.B1.CLK_B 
+ sky130_fd_sc_hd__inv_1 
XWORD[0].W.B1.SELINV WORD[0].W.B0.SEL VGND VGND VPWR VPWR WORD[0].W.B1.SEL_B 
+ sky130_fd_sc_hd__inv_1 
XWORD[0].W.B2.BIT[0].LATCH Di[16] WORD[0].W.B2.GCLK VGND VGND VPWR VPWR 
+ WORD[0].W.B2.q_wire[0] sky130_fd_sc_hd__dlxtp_1 
XWORD[0].W.B2.BIT[0].OBUF WORD[0].W.B2.q_wire[0] WORD[0].W.B2.SEL_B VGND VGND 
+ VPWR VPWR Do[16] sky130_fd_sc_hd__ebufn_2 
XWORD[0].W.B2.BIT[1].LATCH Di[17] WORD[0].W.B2.GCLK VGND VGND VPWR VPWR 
+ WORD[0].W.B2.q_wire[1] sky130_fd_sc_hd__dlxtp_1 
XWORD[0].W.B2.BIT[1].OBUF WORD[0].W.B2.q_wire[1] WORD[0].W.B2.SEL_B VGND VGND 
+ VPWR VPWR Do[17] sky130_fd_sc_hd__ebufn_2 
XWORD[0].W.B2.BIT[2].LATCH Di[18] WORD[0].W.B2.GCLK VGND VGND VPWR VPWR 
+ WORD[0].W.B2.q_wire[2] sky130_fd_sc_hd__dlxtp_1 
XWORD[0].W.B2.BIT[2].OBUF WORD[0].W.B2.q_wire[2] WORD[0].W.B2.SEL_B VGND VGND 
+ VPWR VPWR Do[18] sky130_fd_sc_hd__ebufn_2 
XWORD[0].W.B2.BIT[3].LATCH Di[19] WORD[0].W.B2.GCLK VGND VGND VPWR VPWR 
+ WORD[0].W.B2.q_wire[3] sky130_fd_sc_hd__dlxtp_1 
XWORD[0].W.B2.BIT[3].OBUF WORD[0].W.B2.q_wire[3] WORD[0].W.B2.SEL_B VGND VGND 
+ VPWR VPWR Do[19] sky130_fd_sc_hd__ebufn_2 
XWORD[0].W.B2.BIT[4].LATCH Di[20] WORD[0].W.B2.GCLK VGND VGND VPWR VPWR 
+ WORD[0].W.B2.q_wire[4] sky130_fd_sc_hd__dlxtp_1 
XWORD[0].W.B2.BIT[4].OBUF WORD[0].W.B2.q_wire[4] WORD[0].W.B2.SEL_B VGND VGND 
+ VPWR VPWR Do[20] sky130_fd_sc_hd__ebufn_2 
XWORD[0].W.B2.BIT[5].LATCH Di[21] WORD[0].W.B2.GCLK VGND VGND VPWR VPWR 
+ WORD[0].W.B2.q_wire[5] sky130_fd_sc_hd__dlxtp_1 
XWORD[0].W.B2.BIT[5].OBUF WORD[0].W.B2.q_wire[5] WORD[0].W.B2.SEL_B VGND VGND 
+ VPWR VPWR Do[21] sky130_fd_sc_hd__ebufn_2 
XWORD[0].W.B2.BIT[6].LATCH Di[22] WORD[0].W.B2.GCLK VGND VGND VPWR VPWR 
+ WORD[0].W.B2.q_wire[6] sky130_fd_sc_hd__dlxtp_1 
XWORD[0].W.B2.BIT[6].OBUF WORD[0].W.B2.q_wire[6] WORD[0].W.B2.SEL_B VGND VGND 
+ VPWR VPWR Do[22] sky130_fd_sc_hd__ebufn_2 
XWORD[0].W.B2.BIT[7].LATCH Di[23] WORD[0].W.B2.GCLK VGND VGND VPWR VPWR 
+ WORD[0].W.B2.q_wire[7] sky130_fd_sc_hd__dlxtp_1 
XWORD[0].W.B2.BIT[7].OBUF WORD[0].W.B2.q_wire[7] WORD[0].W.B2.SEL_B VGND VGND 
+ VPWR VPWR Do[23] sky130_fd_sc_hd__ebufn_2 
XWORD[0].W.B2.CG WORD[0].W.B2.CLK_B WORD[0].W.B2.we_wire VGND VGND VPWR VPWR 
+ WORD[0].W.B2.GCLK sky130_fd_sc_hd__dlclkp_1 
XWORD[0].W.B2.CGAND WORD[0].W.B0.SEL WORD[0].W.B2.WE VGND VGND VPWR VPWR 
+ WORD[0].W.B2.we_wire sky130_fd_sc_hd__and2_1 
XWORD[0].W.B2.CLKINV WORD[0].W.B0.CLK VGND VGND VPWR VPWR WORD[0].W.B2.CLK_B 
+ sky130_fd_sc_hd__inv_1 
XWORD[0].W.B2.SELINV WORD[0].W.B0.SEL VGND VGND VPWR VPWR WORD[0].W.B2.SEL_B 
+ sky130_fd_sc_hd__inv_1 
XWORD[0].W.B3.BIT[0].LATCH Di[24] WORD[0].W.B3.GCLK VGND VGND VPWR VPWR 
+ WORD[0].W.B3.q_wire[0] sky130_fd_sc_hd__dlxtp_1 
XWORD[0].W.B3.BIT[0].OBUF WORD[0].W.B3.q_wire[0] WORD[0].W.B3.SEL_B VGND VGND 
+ VPWR VPWR Do[24] sky130_fd_sc_hd__ebufn_2 
XWORD[0].W.B3.BIT[1].LATCH Di[25] WORD[0].W.B3.GCLK VGND VGND VPWR VPWR 
+ WORD[0].W.B3.q_wire[1] sky130_fd_sc_hd__dlxtp_1 
XWORD[0].W.B3.BIT[1].OBUF WORD[0].W.B3.q_wire[1] WORD[0].W.B3.SEL_B VGND VGND 
+ VPWR VPWR Do[25] sky130_fd_sc_hd__ebufn_2 
XWORD[0].W.B3.BIT[2].LATCH Di[26] WORD[0].W.B3.GCLK VGND VGND VPWR VPWR 
+ WORD[0].W.B3.q_wire[2] sky130_fd_sc_hd__dlxtp_1 
XWORD[0].W.B3.BIT[2].OBUF WORD[0].W.B3.q_wire[2] WORD[0].W.B3.SEL_B VGND VGND 
+ VPWR VPWR Do[26] sky130_fd_sc_hd__ebufn_2 
XWORD[0].W.B3.BIT[3].LATCH Di[27] WORD[0].W.B3.GCLK VGND VGND VPWR VPWR 
+ WORD[0].W.B3.q_wire[3] sky130_fd_sc_hd__dlxtp_1 
XWORD[0].W.B3.BIT[3].OBUF WORD[0].W.B3.q_wire[3] WORD[0].W.B3.SEL_B VGND VGND 
+ VPWR VPWR Do[27] sky130_fd_sc_hd__ebufn_2 
XWORD[0].W.B3.BIT[4].LATCH Di[28] WORD[0].W.B3.GCLK VGND VGND VPWR VPWR 
+ WORD[0].W.B3.q_wire[4] sky130_fd_sc_hd__dlxtp_1 
XWORD[0].W.B3.BIT[4].OBUF WORD[0].W.B3.q_wire[4] WORD[0].W.B3.SEL_B VGND VGND 
+ VPWR VPWR Do[28] sky130_fd_sc_hd__ebufn_2 
XWORD[0].W.B3.BIT[5].LATCH Di[29] WORD[0].W.B3.GCLK VGND VGND VPWR VPWR 
+ WORD[0].W.B3.q_wire[5] sky130_fd_sc_hd__dlxtp_1 
XWORD[0].W.B3.BIT[5].OBUF WORD[0].W.B3.q_wire[5] WORD[0].W.B3.SEL_B VGND VGND 
+ VPWR VPWR Do[29] sky130_fd_sc_hd__ebufn_2 
XWORD[0].W.B3.BIT[6].LATCH Di[30] WORD[0].W.B3.GCLK VGND VGND VPWR VPWR 
+ WORD[0].W.B3.q_wire[6] sky130_fd_sc_hd__dlxtp_1 
XWORD[0].W.B3.BIT[6].OBUF WORD[0].W.B3.q_wire[6] WORD[0].W.B3.SEL_B VGND VGND 
+ VPWR VPWR Do[30] sky130_fd_sc_hd__ebufn_2 
XWORD[0].W.B3.BIT[7].LATCH Di[31] WORD[0].W.B3.GCLK VGND VGND VPWR VPWR 
+ WORD[0].W.B3.q_wire[7] sky130_fd_sc_hd__dlxtp_1 
XWORD[0].W.B3.BIT[7].OBUF WORD[0].W.B3.q_wire[7] WORD[0].W.B3.SEL_B VGND VGND 
+ VPWR VPWR Do[31] sky130_fd_sc_hd__ebufn_2 
XWORD[0].W.B3.CG WORD[0].W.B3.CLK_B WORD[0].W.B3.we_wire VGND VGND VPWR VPWR 
+ WORD[0].W.B3.GCLK sky130_fd_sc_hd__dlclkp_1 
XWORD[0].W.B3.CGAND WORD[0].W.B0.SEL WORD[0].W.B3.WE VGND VGND VPWR VPWR 
+ WORD[0].W.B3.we_wire sky130_fd_sc_hd__and2_1 
XWORD[0].W.B3.CLKINV WORD[0].W.B0.CLK VGND VGND VPWR VPWR WORD[0].W.B3.CLK_B 
+ sky130_fd_sc_hd__inv_1 
XWORD[0].W.B3.SELINV WORD[0].W.B0.SEL VGND VGND VPWR VPWR WORD[0].W.B3.SEL_B 
+ sky130_fd_sc_hd__inv_1 
XWORD[0].W.CLKBUF WORD[0].W.CLK VGND VGND VPWR VPWR WORD[0].W.B0.CLK 
+ sky130_fd_sc_hd__clkbuf_1 
XWORD[0].W.SELBUF WORD[0].W.SEL VGND VGND VPWR VPWR WORD[0].W.B0.SEL 
+ sky130_fd_sc_hd__clkbuf_2 
XWORD[1].W.B0.BIT[0].LATCH Di[0] WORD[1].W.B0.GCLK VGND VGND VPWR VPWR 
+ WORD[1].W.B0.q_wire[0] sky130_fd_sc_hd__dlxtp_1 
XWORD[1].W.B0.BIT[0].OBUF WORD[1].W.B0.q_wire[0] WORD[1].W.B0.SEL_B VGND VGND 
+ VPWR VPWR Do[0] sky130_fd_sc_hd__ebufn_2 
XWORD[1].W.B0.BIT[1].LATCH Di[1] WORD[1].W.B0.GCLK VGND VGND VPWR VPWR 
+ WORD[1].W.B0.q_wire[1] sky130_fd_sc_hd__dlxtp_1 
XWORD[1].W.B0.BIT[1].OBUF WORD[1].W.B0.q_wire[1] WORD[1].W.B0.SEL_B VGND VGND 
+ VPWR VPWR Do[1] sky130_fd_sc_hd__ebufn_2 
XWORD[1].W.B0.BIT[2].LATCH Di[2] WORD[1].W.B0.GCLK VGND VGND VPWR VPWR 
+ WORD[1].W.B0.q_wire[2] sky130_fd_sc_hd__dlxtp_1 
XWORD[1].W.B0.BIT[2].OBUF WORD[1].W.B0.q_wire[2] WORD[1].W.B0.SEL_B VGND VGND 
+ VPWR VPWR Do[2] sky130_fd_sc_hd__ebufn_2 
XWORD[1].W.B0.BIT[3].LATCH Di[3] WORD[1].W.B0.GCLK VGND VGND VPWR VPWR 
+ WORD[1].W.B0.q_wire[3] sky130_fd_sc_hd__dlxtp_1 
XWORD[1].W.B0.BIT[3].OBUF WORD[1].W.B0.q_wire[3] WORD[1].W.B0.SEL_B VGND VGND 
+ VPWR VPWR Do[3] sky130_fd_sc_hd__ebufn_2 
XWORD[1].W.B0.BIT[4].LATCH Di[4] WORD[1].W.B0.GCLK VGND VGND VPWR VPWR 
+ WORD[1].W.B0.q_wire[4] sky130_fd_sc_hd__dlxtp_1 
XWORD[1].W.B0.BIT[4].OBUF WORD[1].W.B0.q_wire[4] WORD[1].W.B0.SEL_B VGND VGND 
+ VPWR VPWR Do[4] sky130_fd_sc_hd__ebufn_2 
XWORD[1].W.B0.BIT[5].LATCH Di[5] WORD[1].W.B0.GCLK VGND VGND VPWR VPWR 
+ WORD[1].W.B0.q_wire[5] sky130_fd_sc_hd__dlxtp_1 
XWORD[1].W.B0.BIT[5].OBUF WORD[1].W.B0.q_wire[5] WORD[1].W.B0.SEL_B VGND VGND 
+ VPWR VPWR Do[5] sky130_fd_sc_hd__ebufn_2 
XWORD[1].W.B0.BIT[6].LATCH Di[6] WORD[1].W.B0.GCLK VGND VGND VPWR VPWR 
+ WORD[1].W.B0.q_wire[6] sky130_fd_sc_hd__dlxtp_1 
XWORD[1].W.B0.BIT[6].OBUF WORD[1].W.B0.q_wire[6] WORD[1].W.B0.SEL_B VGND VGND 
+ VPWR VPWR Do[6] sky130_fd_sc_hd__ebufn_2 
XWORD[1].W.B0.BIT[7].LATCH Di[7] WORD[1].W.B0.GCLK VGND VGND VPWR VPWR 
+ WORD[1].W.B0.q_wire[7] sky130_fd_sc_hd__dlxtp_1 
XWORD[1].W.B0.BIT[7].OBUF WORD[1].W.B0.q_wire[7] WORD[1].W.B0.SEL_B VGND VGND 
+ VPWR VPWR Do[7] sky130_fd_sc_hd__ebufn_2 
XWORD[1].W.B0.CG WORD[1].W.B0.CLK_B WORD[1].W.B0.we_wire VGND VGND VPWR VPWR 
+ WORD[1].W.B0.GCLK sky130_fd_sc_hd__dlclkp_1 
XWORD[1].W.B0.CGAND WORD[1].W.B0.SEL WORD[0].W.B0.WE VGND VGND VPWR VPWR 
+ WORD[1].W.B0.we_wire sky130_fd_sc_hd__and2_1 
XWORD[1].W.B0.CLKINV WORD[1].W.B0.CLK VGND VGND VPWR VPWR WORD[1].W.B0.CLK_B 
+ sky130_fd_sc_hd__inv_1 
XWORD[1].W.B0.SELINV WORD[1].W.B0.SEL VGND VGND VPWR VPWR WORD[1].W.B0.SEL_B 
+ sky130_fd_sc_hd__inv_1 
XWORD[1].W.B1.BIT[0].LATCH Di[8] WORD[1].W.B1.GCLK VGND VGND VPWR VPWR 
+ WORD[1].W.B1.q_wire[0] sky130_fd_sc_hd__dlxtp_1 
XWORD[1].W.B1.BIT[0].OBUF WORD[1].W.B1.q_wire[0] WORD[1].W.B1.SEL_B VGND VGND 
+ VPWR VPWR Do[8] sky130_fd_sc_hd__ebufn_2 
XWORD[1].W.B1.BIT[1].LATCH Di[9] WORD[1].W.B1.GCLK VGND VGND VPWR VPWR 
+ WORD[1].W.B1.q_wire[1] sky130_fd_sc_hd__dlxtp_1 
XWORD[1].W.B1.BIT[1].OBUF WORD[1].W.B1.q_wire[1] WORD[1].W.B1.SEL_B VGND VGND 
+ VPWR VPWR Do[9] sky130_fd_sc_hd__ebufn_2 
XWORD[1].W.B1.BIT[2].LATCH Di[10] WORD[1].W.B1.GCLK VGND VGND VPWR VPWR 
+ WORD[1].W.B1.q_wire[2] sky130_fd_sc_hd__dlxtp_1 
XWORD[1].W.B1.BIT[2].OBUF WORD[1].W.B1.q_wire[2] WORD[1].W.B1.SEL_B VGND VGND 
+ VPWR VPWR Do[10] sky130_fd_sc_hd__ebufn_2 
XWORD[1].W.B1.BIT[3].LATCH Di[11] WORD[1].W.B1.GCLK VGND VGND VPWR VPWR 
+ WORD[1].W.B1.q_wire[3] sky130_fd_sc_hd__dlxtp_1 
XWORD[1].W.B1.BIT[3].OBUF WORD[1].W.B1.q_wire[3] WORD[1].W.B1.SEL_B VGND VGND 
+ VPWR VPWR Do[11] sky130_fd_sc_hd__ebufn_2 
XWORD[1].W.B1.BIT[4].LATCH Di[12] WORD[1].W.B1.GCLK VGND VGND VPWR VPWR 
+ WORD[1].W.B1.q_wire[4] sky130_fd_sc_hd__dlxtp_1 
XWORD[1].W.B1.BIT[4].OBUF WORD[1].W.B1.q_wire[4] WORD[1].W.B1.SEL_B VGND VGND 
+ VPWR VPWR Do[12] sky130_fd_sc_hd__ebufn_2 
XWORD[1].W.B1.BIT[5].LATCH Di[13] WORD[1].W.B1.GCLK VGND VGND VPWR VPWR 
+ WORD[1].W.B1.q_wire[5] sky130_fd_sc_hd__dlxtp_1 
XWORD[1].W.B1.BIT[5].OBUF WORD[1].W.B1.q_wire[5] WORD[1].W.B1.SEL_B VGND VGND 
+ VPWR VPWR Do[13] sky130_fd_sc_hd__ebufn_2 
XWORD[1].W.B1.BIT[6].LATCH Di[14] WORD[1].W.B1.GCLK VGND VGND VPWR VPWR 
+ WORD[1].W.B1.q_wire[6] sky130_fd_sc_hd__dlxtp_1 
XWORD[1].W.B1.BIT[6].OBUF WORD[1].W.B1.q_wire[6] WORD[1].W.B1.SEL_B VGND VGND 
+ VPWR VPWR Do[14] sky130_fd_sc_hd__ebufn_2 
XWORD[1].W.B1.BIT[7].LATCH Di[15] WORD[1].W.B1.GCLK VGND VGND VPWR VPWR 
+ WORD[1].W.B1.q_wire[7] sky130_fd_sc_hd__dlxtp_1 
XWORD[1].W.B1.BIT[7].OBUF WORD[1].W.B1.q_wire[7] WORD[1].W.B1.SEL_B VGND VGND 
+ VPWR VPWR Do[15] sky130_fd_sc_hd__ebufn_2 
XWORD[1].W.B1.CG WORD[1].W.B1.CLK_B WORD[1].W.B1.we_wire VGND VGND VPWR VPWR 
+ WORD[1].W.B1.GCLK sky130_fd_sc_hd__dlclkp_1 
XWORD[1].W.B1.CGAND WORD[1].W.B0.SEL WORD[0].W.B1.WE VGND VGND VPWR VPWR 
+ WORD[1].W.B1.we_wire sky130_fd_sc_hd__and2_1 
XWORD[1].W.B1.CLKINV WORD[1].W.B0.CLK VGND VGND VPWR VPWR WORD[1].W.B1.CLK_B 
+ sky130_fd_sc_hd__inv_1 
XWORD[1].W.B1.SELINV WORD[1].W.B0.SEL VGND VGND VPWR VPWR WORD[1].W.B1.SEL_B 
+ sky130_fd_sc_hd__inv_1 
XWORD[1].W.B2.BIT[0].LATCH Di[16] WORD[1].W.B2.GCLK VGND VGND VPWR VPWR 
+ WORD[1].W.B2.q_wire[0] sky130_fd_sc_hd__dlxtp_1 
XWORD[1].W.B2.BIT[0].OBUF WORD[1].W.B2.q_wire[0] WORD[1].W.B2.SEL_B VGND VGND 
+ VPWR VPWR Do[16] sky130_fd_sc_hd__ebufn_2 
XWORD[1].W.B2.BIT[1].LATCH Di[17] WORD[1].W.B2.GCLK VGND VGND VPWR VPWR 
+ WORD[1].W.B2.q_wire[1] sky130_fd_sc_hd__dlxtp_1 
XWORD[1].W.B2.BIT[1].OBUF WORD[1].W.B2.q_wire[1] WORD[1].W.B2.SEL_B VGND VGND 
+ VPWR VPWR Do[17] sky130_fd_sc_hd__ebufn_2 
XWORD[1].W.B2.BIT[2].LATCH Di[18] WORD[1].W.B2.GCLK VGND VGND VPWR VPWR 
+ WORD[1].W.B2.q_wire[2] sky130_fd_sc_hd__dlxtp_1 
XWORD[1].W.B2.BIT[2].OBUF WORD[1].W.B2.q_wire[2] WORD[1].W.B2.SEL_B VGND VGND 
+ VPWR VPWR Do[18] sky130_fd_sc_hd__ebufn_2 
XWORD[1].W.B2.BIT[3].LATCH Di[19] WORD[1].W.B2.GCLK VGND VGND VPWR VPWR 
+ WORD[1].W.B2.q_wire[3] sky130_fd_sc_hd__dlxtp_1 
XWORD[1].W.B2.BIT[3].OBUF WORD[1].W.B2.q_wire[3] WORD[1].W.B2.SEL_B VGND VGND 
+ VPWR VPWR Do[19] sky130_fd_sc_hd__ebufn_2 
XWORD[1].W.B2.BIT[4].LATCH Di[20] WORD[1].W.B2.GCLK VGND VGND VPWR VPWR 
+ WORD[1].W.B2.q_wire[4] sky130_fd_sc_hd__dlxtp_1 
XWORD[1].W.B2.BIT[4].OBUF WORD[1].W.B2.q_wire[4] WORD[1].W.B2.SEL_B VGND VGND 
+ VPWR VPWR Do[20] sky130_fd_sc_hd__ebufn_2 
XWORD[1].W.B2.BIT[5].LATCH Di[21] WORD[1].W.B2.GCLK VGND VGND VPWR VPWR 
+ WORD[1].W.B2.q_wire[5] sky130_fd_sc_hd__dlxtp_1 
XWORD[1].W.B2.BIT[5].OBUF WORD[1].W.B2.q_wire[5] WORD[1].W.B2.SEL_B VGND VGND 
+ VPWR VPWR Do[21] sky130_fd_sc_hd__ebufn_2 
XWORD[1].W.B2.BIT[6].LATCH Di[22] WORD[1].W.B2.GCLK VGND VGND VPWR VPWR 
+ WORD[1].W.B2.q_wire[6] sky130_fd_sc_hd__dlxtp_1 
XWORD[1].W.B2.BIT[6].OBUF WORD[1].W.B2.q_wire[6] WORD[1].W.B2.SEL_B VGND VGND 
+ VPWR VPWR Do[22] sky130_fd_sc_hd__ebufn_2 
XWORD[1].W.B2.BIT[7].LATCH Di[23] WORD[1].W.B2.GCLK VGND VGND VPWR VPWR 
+ WORD[1].W.B2.q_wire[7] sky130_fd_sc_hd__dlxtp_1 
XWORD[1].W.B2.BIT[7].OBUF WORD[1].W.B2.q_wire[7] WORD[1].W.B2.SEL_B VGND VGND 
+ VPWR VPWR Do[23] sky130_fd_sc_hd__ebufn_2 
XWORD[1].W.B2.CG WORD[1].W.B2.CLK_B WORD[1].W.B2.we_wire VGND VGND VPWR VPWR 
+ WORD[1].W.B2.GCLK sky130_fd_sc_hd__dlclkp_1 
XWORD[1].W.B2.CGAND WORD[1].W.B0.SEL WORD[0].W.B2.WE VGND VGND VPWR VPWR 
+ WORD[1].W.B2.we_wire sky130_fd_sc_hd__and2_1 
XWORD[1].W.B2.CLKINV WORD[1].W.B0.CLK VGND VGND VPWR VPWR WORD[1].W.B2.CLK_B 
+ sky130_fd_sc_hd__inv_1 
XWORD[1].W.B2.SELINV WORD[1].W.B0.SEL VGND VGND VPWR VPWR WORD[1].W.B2.SEL_B 
+ sky130_fd_sc_hd__inv_1 
XWORD[1].W.B3.BIT[0].LATCH Di[24] WORD[1].W.B3.GCLK VGND VGND VPWR VPWR 
+ WORD[1].W.B3.q_wire[0] sky130_fd_sc_hd__dlxtp_1 
XWORD[1].W.B3.BIT[0].OBUF WORD[1].W.B3.q_wire[0] WORD[1].W.B3.SEL_B VGND VGND 
+ VPWR VPWR Do[24] sky130_fd_sc_hd__ebufn_2 
XWORD[1].W.B3.BIT[1].LATCH Di[25] WORD[1].W.B3.GCLK VGND VGND VPWR VPWR 
+ WORD[1].W.B3.q_wire[1] sky130_fd_sc_hd__dlxtp_1 
XWORD[1].W.B3.BIT[1].OBUF WORD[1].W.B3.q_wire[1] WORD[1].W.B3.SEL_B VGND VGND 
+ VPWR VPWR Do[25] sky130_fd_sc_hd__ebufn_2 
XWORD[1].W.B3.BIT[2].LATCH Di[26] WORD[1].W.B3.GCLK VGND VGND VPWR VPWR 
+ WORD[1].W.B3.q_wire[2] sky130_fd_sc_hd__dlxtp_1 
XWORD[1].W.B3.BIT[2].OBUF WORD[1].W.B3.q_wire[2] WORD[1].W.B3.SEL_B VGND VGND 
+ VPWR VPWR Do[26] sky130_fd_sc_hd__ebufn_2 
XWORD[1].W.B3.BIT[3].LATCH Di[27] WORD[1].W.B3.GCLK VGND VGND VPWR VPWR 
+ WORD[1].W.B3.q_wire[3] sky130_fd_sc_hd__dlxtp_1 
XWORD[1].W.B3.BIT[3].OBUF WORD[1].W.B3.q_wire[3] WORD[1].W.B3.SEL_B VGND VGND 
+ VPWR VPWR Do[27] sky130_fd_sc_hd__ebufn_2 
XWORD[1].W.B3.BIT[4].LATCH Di[28] WORD[1].W.B3.GCLK VGND VGND VPWR VPWR 
+ WORD[1].W.B3.q_wire[4] sky130_fd_sc_hd__dlxtp_1 
XWORD[1].W.B3.BIT[4].OBUF WORD[1].W.B3.q_wire[4] WORD[1].W.B3.SEL_B VGND VGND 
+ VPWR VPWR Do[28] sky130_fd_sc_hd__ebufn_2 
XWORD[1].W.B3.BIT[5].LATCH Di[29] WORD[1].W.B3.GCLK VGND VGND VPWR VPWR 
+ WORD[1].W.B3.q_wire[5] sky130_fd_sc_hd__dlxtp_1 
XWORD[1].W.B3.BIT[5].OBUF WORD[1].W.B3.q_wire[5] WORD[1].W.B3.SEL_B VGND VGND 
+ VPWR VPWR Do[29] sky130_fd_sc_hd__ebufn_2 
XWORD[1].W.B3.BIT[6].LATCH Di[30] WORD[1].W.B3.GCLK VGND VGND VPWR VPWR 
+ WORD[1].W.B3.q_wire[6] sky130_fd_sc_hd__dlxtp_1 
XWORD[1].W.B3.BIT[6].OBUF WORD[1].W.B3.q_wire[6] WORD[1].W.B3.SEL_B VGND VGND 
+ VPWR VPWR Do[30] sky130_fd_sc_hd__ebufn_2 
XWORD[1].W.B3.BIT[7].LATCH Di[31] WORD[1].W.B3.GCLK VGND VGND VPWR VPWR 
+ WORD[1].W.B3.q_wire[7] sky130_fd_sc_hd__dlxtp_1 
XWORD[1].W.B3.BIT[7].OBUF WORD[1].W.B3.q_wire[7] WORD[1].W.B3.SEL_B VGND VGND 
+ VPWR VPWR Do[31] sky130_fd_sc_hd__ebufn_2 
XWORD[1].W.B3.CG WORD[1].W.B3.CLK_B WORD[1].W.B3.we_wire VGND VGND VPWR VPWR 
+ WORD[1].W.B3.GCLK sky130_fd_sc_hd__dlclkp_1 
XWORD[1].W.B3.CGAND WORD[1].W.B0.SEL WORD[0].W.B3.WE VGND VGND VPWR VPWR 
+ WORD[1].W.B3.we_wire sky130_fd_sc_hd__and2_1 
XWORD[1].W.B3.CLKINV WORD[1].W.B0.CLK VGND VGND VPWR VPWR WORD[1].W.B3.CLK_B 
+ sky130_fd_sc_hd__inv_1 
XWORD[1].W.B3.SELINV WORD[1].W.B0.SEL VGND VGND VPWR VPWR WORD[1].W.B3.SEL_B 
+ sky130_fd_sc_hd__inv_1 
XWORD[1].W.CLKBUF WORD[0].W.CLK VGND VGND VPWR VPWR WORD[1].W.B0.CLK 
+ sky130_fd_sc_hd__clkbuf_1 
XWORD[1].W.SELBUF WORD[1].W.SEL VGND VGND VPWR VPWR WORD[1].W.B0.SEL 
+ sky130_fd_sc_hd__clkbuf_2 
XWORD[2].W.B0.BIT[0].LATCH Di[0] WORD[2].W.B0.GCLK VGND VGND VPWR VPWR 
+ WORD[2].W.B0.q_wire[0] sky130_fd_sc_hd__dlxtp_1 
XWORD[2].W.B0.BIT[0].OBUF WORD[2].W.B0.q_wire[0] WORD[2].W.B0.SEL_B VGND VGND 
+ VPWR VPWR Do[0] sky130_fd_sc_hd__ebufn_2 
XWORD[2].W.B0.BIT[1].LATCH Di[1] WORD[2].W.B0.GCLK VGND VGND VPWR VPWR 
+ WORD[2].W.B0.q_wire[1] sky130_fd_sc_hd__dlxtp_1 
XWORD[2].W.B0.BIT[1].OBUF WORD[2].W.B0.q_wire[1] WORD[2].W.B0.SEL_B VGND VGND 
+ VPWR VPWR Do[1] sky130_fd_sc_hd__ebufn_2 
XWORD[2].W.B0.BIT[2].LATCH Di[2] WORD[2].W.B0.GCLK VGND VGND VPWR VPWR 
+ WORD[2].W.B0.q_wire[2] sky130_fd_sc_hd__dlxtp_1 
XWORD[2].W.B0.BIT[2].OBUF WORD[2].W.B0.q_wire[2] WORD[2].W.B0.SEL_B VGND VGND 
+ VPWR VPWR Do[2] sky130_fd_sc_hd__ebufn_2 
XWORD[2].W.B0.BIT[3].LATCH Di[3] WORD[2].W.B0.GCLK VGND VGND VPWR VPWR 
+ WORD[2].W.B0.q_wire[3] sky130_fd_sc_hd__dlxtp_1 
XWORD[2].W.B0.BIT[3].OBUF WORD[2].W.B0.q_wire[3] WORD[2].W.B0.SEL_B VGND VGND 
+ VPWR VPWR Do[3] sky130_fd_sc_hd__ebufn_2 
XWORD[2].W.B0.BIT[4].LATCH Di[4] WORD[2].W.B0.GCLK VGND VGND VPWR VPWR 
+ WORD[2].W.B0.q_wire[4] sky130_fd_sc_hd__dlxtp_1 
XWORD[2].W.B0.BIT[4].OBUF WORD[2].W.B0.q_wire[4] WORD[2].W.B0.SEL_B VGND VGND 
+ VPWR VPWR Do[4] sky130_fd_sc_hd__ebufn_2 
XWORD[2].W.B0.BIT[5].LATCH Di[5] WORD[2].W.B0.GCLK VGND VGND VPWR VPWR 
+ WORD[2].W.B0.q_wire[5] sky130_fd_sc_hd__dlxtp_1 
XWORD[2].W.B0.BIT[5].OBUF WORD[2].W.B0.q_wire[5] WORD[2].W.B0.SEL_B VGND VGND 
+ VPWR VPWR Do[5] sky130_fd_sc_hd__ebufn_2 
XWORD[2].W.B0.BIT[6].LATCH Di[6] WORD[2].W.B0.GCLK VGND VGND VPWR VPWR 
+ WORD[2].W.B0.q_wire[6] sky130_fd_sc_hd__dlxtp_1 
XWORD[2].W.B0.BIT[6].OBUF WORD[2].W.B0.q_wire[6] WORD[2].W.B0.SEL_B VGND VGND 
+ VPWR VPWR Do[6] sky130_fd_sc_hd__ebufn_2 
XWORD[2].W.B0.BIT[7].LATCH Di[7] WORD[2].W.B0.GCLK VGND VGND VPWR VPWR 
+ WORD[2].W.B0.q_wire[7] sky130_fd_sc_hd__dlxtp_1 
XWORD[2].W.B0.BIT[7].OBUF WORD[2].W.B0.q_wire[7] WORD[2].W.B0.SEL_B VGND VGND 
+ VPWR VPWR Do[7] sky130_fd_sc_hd__ebufn_2 
XWORD[2].W.B0.CG WORD[2].W.B0.CLK_B WORD[2].W.B0.we_wire VGND VGND VPWR VPWR 
+ WORD[2].W.B0.GCLK sky130_fd_sc_hd__dlclkp_1 
XWORD[2].W.B0.CGAND WORD[2].W.B0.SEL WORD[0].W.B0.WE VGND VGND VPWR VPWR 
+ WORD[2].W.B0.we_wire sky130_fd_sc_hd__and2_1 
XWORD[2].W.B0.CLKINV WORD[2].W.B0.CLK VGND VGND VPWR VPWR WORD[2].W.B0.CLK_B 
+ sky130_fd_sc_hd__inv_1 
XWORD[2].W.B0.SELINV WORD[2].W.B0.SEL VGND VGND VPWR VPWR WORD[2].W.B0.SEL_B 
+ sky130_fd_sc_hd__inv_1 
XWORD[2].W.B1.BIT[0].LATCH Di[8] WORD[2].W.B1.GCLK VGND VGND VPWR VPWR 
+ WORD[2].W.B1.q_wire[0] sky130_fd_sc_hd__dlxtp_1 
XWORD[2].W.B1.BIT[0].OBUF WORD[2].W.B1.q_wire[0] WORD[2].W.B1.SEL_B VGND VGND 
+ VPWR VPWR Do[8] sky130_fd_sc_hd__ebufn_2 
XWORD[2].W.B1.BIT[1].LATCH Di[9] WORD[2].W.B1.GCLK VGND VGND VPWR VPWR 
+ WORD[2].W.B1.q_wire[1] sky130_fd_sc_hd__dlxtp_1 
XWORD[2].W.B1.BIT[1].OBUF WORD[2].W.B1.q_wire[1] WORD[2].W.B1.SEL_B VGND VGND 
+ VPWR VPWR Do[9] sky130_fd_sc_hd__ebufn_2 
XWORD[2].W.B1.BIT[2].LATCH Di[10] WORD[2].W.B1.GCLK VGND VGND VPWR VPWR 
+ WORD[2].W.B1.q_wire[2] sky130_fd_sc_hd__dlxtp_1 
XWORD[2].W.B1.BIT[2].OBUF WORD[2].W.B1.q_wire[2] WORD[2].W.B1.SEL_B VGND VGND 
+ VPWR VPWR Do[10] sky130_fd_sc_hd__ebufn_2 
XWORD[2].W.B1.BIT[3].LATCH Di[11] WORD[2].W.B1.GCLK VGND VGND VPWR VPWR 
+ WORD[2].W.B1.q_wire[3] sky130_fd_sc_hd__dlxtp_1 
XWORD[2].W.B1.BIT[3].OBUF WORD[2].W.B1.q_wire[3] WORD[2].W.B1.SEL_B VGND VGND 
+ VPWR VPWR Do[11] sky130_fd_sc_hd__ebufn_2 
XWORD[2].W.B1.BIT[4].LATCH Di[12] WORD[2].W.B1.GCLK VGND VGND VPWR VPWR 
+ WORD[2].W.B1.q_wire[4] sky130_fd_sc_hd__dlxtp_1 
XWORD[2].W.B1.BIT[4].OBUF WORD[2].W.B1.q_wire[4] WORD[2].W.B1.SEL_B VGND VGND 
+ VPWR VPWR Do[12] sky130_fd_sc_hd__ebufn_2 
XWORD[2].W.B1.BIT[5].LATCH Di[13] WORD[2].W.B1.GCLK VGND VGND VPWR VPWR 
+ WORD[2].W.B1.q_wire[5] sky130_fd_sc_hd__dlxtp_1 
XWORD[2].W.B1.BIT[5].OBUF WORD[2].W.B1.q_wire[5] WORD[2].W.B1.SEL_B VGND VGND 
+ VPWR VPWR Do[13] sky130_fd_sc_hd__ebufn_2 
XWORD[2].W.B1.BIT[6].LATCH Di[14] WORD[2].W.B1.GCLK VGND VGND VPWR VPWR 
+ WORD[2].W.B1.q_wire[6] sky130_fd_sc_hd__dlxtp_1 
XWORD[2].W.B1.BIT[6].OBUF WORD[2].W.B1.q_wire[6] WORD[2].W.B1.SEL_B VGND VGND 
+ VPWR VPWR Do[14] sky130_fd_sc_hd__ebufn_2 
XWORD[2].W.B1.BIT[7].LATCH Di[15] WORD[2].W.B1.GCLK VGND VGND VPWR VPWR 
+ WORD[2].W.B1.q_wire[7] sky130_fd_sc_hd__dlxtp_1 
XWORD[2].W.B1.BIT[7].OBUF WORD[2].W.B1.q_wire[7] WORD[2].W.B1.SEL_B VGND VGND 
+ VPWR VPWR Do[15] sky130_fd_sc_hd__ebufn_2 
XWORD[2].W.B1.CG WORD[2].W.B1.CLK_B WORD[2].W.B1.we_wire VGND VGND VPWR VPWR 
+ WORD[2].W.B1.GCLK sky130_fd_sc_hd__dlclkp_1 
XWORD[2].W.B1.CGAND WORD[2].W.B0.SEL WORD[0].W.B1.WE VGND VGND VPWR VPWR 
+ WORD[2].W.B1.we_wire sky130_fd_sc_hd__and2_1 
XWORD[2].W.B1.CLKINV WORD[2].W.B0.CLK VGND VGND VPWR VPWR WORD[2].W.B1.CLK_B 
+ sky130_fd_sc_hd__inv_1 
XWORD[2].W.B1.SELINV WORD[2].W.B0.SEL VGND VGND VPWR VPWR WORD[2].W.B1.SEL_B 
+ sky130_fd_sc_hd__inv_1 
XWORD[2].W.B2.BIT[0].LATCH Di[16] WORD[2].W.B2.GCLK VGND VGND VPWR VPWR 
+ WORD[2].W.B2.q_wire[0] sky130_fd_sc_hd__dlxtp_1 
XWORD[2].W.B2.BIT[0].OBUF WORD[2].W.B2.q_wire[0] WORD[2].W.B2.SEL_B VGND VGND 
+ VPWR VPWR Do[16] sky130_fd_sc_hd__ebufn_2 
XWORD[2].W.B2.BIT[1].LATCH Di[17] WORD[2].W.B2.GCLK VGND VGND VPWR VPWR 
+ WORD[2].W.B2.q_wire[1] sky130_fd_sc_hd__dlxtp_1 
XWORD[2].W.B2.BIT[1].OBUF WORD[2].W.B2.q_wire[1] WORD[2].W.B2.SEL_B VGND VGND 
+ VPWR VPWR Do[17] sky130_fd_sc_hd__ebufn_2 
XWORD[2].W.B2.BIT[2].LATCH Di[18] WORD[2].W.B2.GCLK VGND VGND VPWR VPWR 
+ WORD[2].W.B2.q_wire[2] sky130_fd_sc_hd__dlxtp_1 
XWORD[2].W.B2.BIT[2].OBUF WORD[2].W.B2.q_wire[2] WORD[2].W.B2.SEL_B VGND VGND 
+ VPWR VPWR Do[18] sky130_fd_sc_hd__ebufn_2 
XWORD[2].W.B2.BIT[3].LATCH Di[19] WORD[2].W.B2.GCLK VGND VGND VPWR VPWR 
+ WORD[2].W.B2.q_wire[3] sky130_fd_sc_hd__dlxtp_1 
XWORD[2].W.B2.BIT[3].OBUF WORD[2].W.B2.q_wire[3] WORD[2].W.B2.SEL_B VGND VGND 
+ VPWR VPWR Do[19] sky130_fd_sc_hd__ebufn_2 
XWORD[2].W.B2.BIT[4].LATCH Di[20] WORD[2].W.B2.GCLK VGND VGND VPWR VPWR 
+ WORD[2].W.B2.q_wire[4] sky130_fd_sc_hd__dlxtp_1 
XWORD[2].W.B2.BIT[4].OBUF WORD[2].W.B2.q_wire[4] WORD[2].W.B2.SEL_B VGND VGND 
+ VPWR VPWR Do[20] sky130_fd_sc_hd__ebufn_2 
XWORD[2].W.B2.BIT[5].LATCH Di[21] WORD[2].W.B2.GCLK VGND VGND VPWR VPWR 
+ WORD[2].W.B2.q_wire[5] sky130_fd_sc_hd__dlxtp_1 
XWORD[2].W.B2.BIT[5].OBUF WORD[2].W.B2.q_wire[5] WORD[2].W.B2.SEL_B VGND VGND 
+ VPWR VPWR Do[21] sky130_fd_sc_hd__ebufn_2 
XWORD[2].W.B2.BIT[6].LATCH Di[22] WORD[2].W.B2.GCLK VGND VGND VPWR VPWR 
+ WORD[2].W.B2.q_wire[6] sky130_fd_sc_hd__dlxtp_1 
XWORD[2].W.B2.BIT[6].OBUF WORD[2].W.B2.q_wire[6] WORD[2].W.B2.SEL_B VGND VGND 
+ VPWR VPWR Do[22] sky130_fd_sc_hd__ebufn_2 
XWORD[2].W.B2.BIT[7].LATCH Di[23] WORD[2].W.B2.GCLK VGND VGND VPWR VPWR 
+ WORD[2].W.B2.q_wire[7] sky130_fd_sc_hd__dlxtp_1 
XWORD[2].W.B2.BIT[7].OBUF WORD[2].W.B2.q_wire[7] WORD[2].W.B2.SEL_B VGND VGND 
+ VPWR VPWR Do[23] sky130_fd_sc_hd__ebufn_2 
XWORD[2].W.B2.CG WORD[2].W.B2.CLK_B WORD[2].W.B2.we_wire VGND VGND VPWR VPWR 
+ WORD[2].W.B2.GCLK sky130_fd_sc_hd__dlclkp_1 
XWORD[2].W.B2.CGAND WORD[2].W.B0.SEL WORD[0].W.B2.WE VGND VGND VPWR VPWR 
+ WORD[2].W.B2.we_wire sky130_fd_sc_hd__and2_1 
XWORD[2].W.B2.CLKINV WORD[2].W.B0.CLK VGND VGND VPWR VPWR WORD[2].W.B2.CLK_B 
+ sky130_fd_sc_hd__inv_1 
XWORD[2].W.B2.SELINV WORD[2].W.B0.SEL VGND VGND VPWR VPWR WORD[2].W.B2.SEL_B 
+ sky130_fd_sc_hd__inv_1 
XWORD[2].W.B3.BIT[0].LATCH Di[24] WORD[2].W.B3.GCLK VGND VGND VPWR VPWR 
+ WORD[2].W.B3.q_wire[0] sky130_fd_sc_hd__dlxtp_1 
XWORD[2].W.B3.BIT[0].OBUF WORD[2].W.B3.q_wire[0] WORD[2].W.B3.SEL_B VGND VGND 
+ VPWR VPWR Do[24] sky130_fd_sc_hd__ebufn_2 
XWORD[2].W.B3.BIT[1].LATCH Di[25] WORD[2].W.B3.GCLK VGND VGND VPWR VPWR 