$ Spice netlist generated by v2lvs
$ v2013.2_18.13    Thu May 16 11:29:55 PDT 2013
.INCLUDE "inputs/adk/stdcells.spi" 

.SUBCKT RAM32 CLK EN VPWR VGND A[4] A[3] A[2] A[1] A[0] Di[31] Di[30] Di[29] 
+ Di[28] Di[27] Di[26] Di[25] Di[24] Di[23] Di[22] Di[21] Di[20] Di[19] Di[18] 
+ Di[17] Di[16] Di[15] Di[14] Di[13] Di[12] Di[11] Di[10] Di[9] Di[8] Di[7] 
+ Di[6] Di[5] Di[4] Di[3] Di[2] Di[1] Di[0] Do[31] Do[30] Do[29] Do[28] Do[27] 
+ Do[26] Do[25] Do[24] Do[23] Do[22] Do[21] Do[20] Do[19] Do[18] Do[17] Do[16] 
+ Do[15] Do[14] Do[13] Do[12] Do[11] Do[10] Do[9] Do[8] Do[7] Do[6] Do[5] Do[4] 
+ Do[3] Do[2] Do[1] Do[0] WE[3] WE[2] WE[1] WE[0] 
XABUF[0] A[0] VGND VGND VPWR VPWR SLICE[0].RAM8x32.A[0] 
+ sky130_fd_sc_hd__clkbuf_2 
XABUF[1] A[1] VGND VGND VPWR VPWR SLICE[0].RAM8x32.A[1] 
+ sky130_fd_sc_hd__clkbuf_2 
XABUF[2] A[2] VGND VGND VPWR VPWR SLICE[0].RAM8x32.A[2] 
+ sky130_fd_sc_hd__clkbuf_2 
XABUF[3] A[3] VGND VGND VPWR VPWR DEC.A[0] sky130_fd_sc_hd__clkbuf_2 
XABUF[4] A[4] VGND VGND VPWR VPWR DEC.A[1] sky130_fd_sc_hd__clkbuf_2 
XCLKBUF CLK VGND VGND VPWR VPWR SLICE[0].RAM8x32.CLK sky130_fd_sc_hd__clkbuf_2 
XDEC.AND0 DEC.A[0] DEC.A[1] DEC.EN VGND VGND VPWR VPWR SLICE[0].RAM8x32.DEC.EN 
+ sky130_fd_sc_hd__nor3b_4 
XDEC.AND1 DEC.A[1] DEC.A[0] DEC.EN VGND VGND VPWR VPWR SLICE[1].RAM8x32.DEC.EN 
+ sky130_fd_sc_hd__and3b_4 
XDEC.AND2 DEC.A[0] DEC.A[1] DEC.EN VGND VGND VPWR VPWR SLICE[2].RAM8x32.DEC.EN 
+ sky130_fd_sc_hd__and3b_4 
XDEC.AND3 DEC.A[1] DEC.A[0] DEC.EN VGND VGND VPWR VPWR SLICE[3].RAM8x32.DEC.EN 
+ sky130_fd_sc_hd__and3_4 
XDIBUF[0] Di[0] VGND VGND VPWR VPWR SLICE[0].RAM8x32.Di[0] 
+ sky130_fd_sc_hd__clkbuf_16 
XDIBUF[10] Di[10] VGND VGND VPWR VPWR SLICE[0].RAM8x32.Di[10] 
+ sky130_fd_sc_hd__clkbuf_16 
XDIBUF[11] Di[11] VGND VGND VPWR VPWR SLICE[0].RAM8x32.Di[11] 
+ sky130_fd_sc_hd__clkbuf_16 
XDIBUF[12] Di[12] VGND VGND VPWR VPWR SLICE[0].RAM8x32.Di[12] 
+ sky130_fd_sc_hd__clkbuf_16 
XDIBUF[13] Di[13] VGND VGND VPWR VPWR SLICE[0].RAM8x32.Di[13] 
+ sky130_fd_sc_hd__clkbuf_16 
XDIBUF[14] Di[14] VGND VGND VPWR VPWR SLICE[0].RAM8x32.Di[14] 
+ sky130_fd_sc_hd__clkbuf_16 
XDIBUF[15] Di[15] VGND VGND VPWR VPWR SLICE[0].RAM8x32.Di[15] 
+ sky130_fd_sc_hd__clkbuf_16 
XDIBUF[16] Di[16] VGND VGND VPWR VPWR SLICE[0].RAM8x32.Di[16] 
+ sky130_fd_sc_hd__clkbuf_16 
XDIBUF[17] Di[17] VGND VGND VPWR VPWR SLICE[0].RAM8x32.Di[17] 
+ sky130_fd_sc_hd__clkbuf_16 
XDIBUF[18] Di[18] VGND VGND VPWR VPWR SLICE[0].RAM8x32.Di[18] 
+ sky130_fd_sc_hd__clkbuf_16 
XDIBUF[19] Di[19] VGND VGND VPWR VPWR SLICE[0].RAM8x32.Di[19] 
+ sky130_fd_sc_hd__clkbuf_16 
XDIBUF[1] Di[1] VGND VGND VPWR VPWR SLICE[0].RAM8x32.Di[1] 
+ sky130_fd_sc_hd__clkbuf_16 
XDIBUF[20] Di[20] VGND VGND VPWR VPWR SLICE[0].RAM8x32.Di[20] 
+ sky130_fd_sc_hd__clkbuf_16 
XDIBUF[21] Di[21] VGND VGND VPWR VPWR SLICE[0].RAM8x32.Di[21] 
+ sky130_fd_sc_hd__clkbuf_16 
XDIBUF[22] Di[22] VGND VGND VPWR VPWR SLICE[0].RAM8x32.Di[22] 
+ sky130_fd_sc_hd__clkbuf_16 
XDIBUF[23] Di[23] VGND VGND VPWR VPWR SLICE[0].RAM8x32.Di[23] 
+ sky130_fd_sc_hd__clkbuf_16 
XDIBUF[24] Di[24] VGND VGND VPWR VPWR SLICE[0].RAM8x32.Di[24] 
+ sky130_fd_sc_hd__clkbuf_16 
XDIBUF[25] Di[25] VGND VGND VPWR VPWR SLICE[0].RAM8x32.Di[25] 
+ sky130_fd_sc_hd__clkbuf_16 
XDIBUF[26] Di[26] VGND VGND VPWR VPWR SLICE[0].RAM8x32.Di[26] 
+ sky130_fd_sc_hd__clkbuf_16 
XDIBUF[27] Di[27] VGND VGND VPWR VPWR SLICE[0].RAM8x32.Di[27] 
+ sky130_fd_sc_hd__clkbuf_16 
XDIBUF[28] Di[28] VGND VGND VPWR VPWR SLICE[0].RAM8x32.Di[28] 
+ sky130_fd_sc_hd__clkbuf_16 
XDIBUF[29] Di[29] VGND VGND VPWR VPWR SLICE[0].RAM8x32.Di[29] 
+ sky130_fd_sc_hd__clkbuf_16 
XDIBUF[2] Di[2] VGND VGND VPWR VPWR SLICE[0].RAM8x32.Di[2] 
+ sky130_fd_sc_hd__clkbuf_16 
XDIBUF[30] Di[30] VGND VGND VPWR VPWR SLICE[0].RAM8x32.Di[30] 
+ sky130_fd_sc_hd__clkbuf_16 
XDIBUF[31] Di[31] VGND VGND VPWR VPWR SLICE[0].RAM8x32.Di[31] 
+ sky130_fd_sc_hd__clkbuf_16 
XDIBUF[3] Di[3] VGND VGND VPWR VPWR SLICE[0].RAM8x32.Di[3] 
+ sky130_fd_sc_hd__clkbuf_16 
XDIBUF[4] Di[4] VGND VGND VPWR VPWR SLICE[0].RAM8x32.Di[4] 
+ sky130_fd_sc_hd__clkbuf_16 
XDIBUF[5] Di[5] VGND VGND VPWR VPWR SLICE[0].RAM8x32.Di[5] 
+ sky130_fd_sc_hd__clkbuf_16 
XDIBUF[6] Di[6] VGND VGND VPWR VPWR SLICE[0].RAM8x32.Di[6] 
+ sky130_fd_sc_hd__clkbuf_16 
XDIBUF[7] Di[7] VGND VGND VPWR VPWR SLICE[0].RAM8x32.Di[7] 
+ sky130_fd_sc_hd__clkbuf_16 
XDIBUF[8] Di[8] VGND VGND VPWR VPWR SLICE[0].RAM8x32.Di[8] 
+ sky130_fd_sc_hd__clkbuf_16 
XDIBUF[9] Di[9] VGND VGND VPWR VPWR SLICE[0].RAM8x32.Di[9] 
+ sky130_fd_sc_hd__clkbuf_16 
XDo_FF[0] CLK SLICE[0].RAM8x32.Do[0] VGND VGND VPWR VPWR Do[0] 
+ sky130_fd_sc_hd__dfxtp_1 
XDo_FF[10] CLK SLICE[0].RAM8x32.Do[10] VGND VGND VPWR VPWR Do[10] 
+ sky130_fd_sc_hd__dfxtp_1 
XDo_FF[11] CLK SLICE[0].RAM8x32.Do[11] VGND VGND VPWR VPWR Do[11] 
+ sky130_fd_sc_hd__dfxtp_1 
XDo_FF[12] CLK SLICE[0].RAM8x32.Do[12] VGND VGND VPWR VPWR Do[12] 
+ sky130_fd_sc_hd__dfxtp_1 
XDo_FF[13] CLK SLICE[0].RAM8x32.Do[13] VGND VGND VPWR VPWR Do[13] 
+ sky130_fd_sc_hd__dfxtp_1 
XDo_FF[14] CLK SLICE[0].RAM8x32.Do[14] VGND VGND VPWR VPWR Do[14] 
+ sky130_fd_sc_hd__dfxtp_1 
XDo_FF[15] CLK SLICE[0].RAM8x32.Do[15] VGND VGND VPWR VPWR Do[15] 
+ sky130_fd_sc_hd__dfxtp_1 
XDo_FF[16] CLK SLICE[0].RAM8x32.Do[16] VGND VGND VPWR VPWR Do[16] 
+ sky130_fd_sc_hd__dfxtp_1 
XDo_FF[17] CLK SLICE[0].RAM8x32.Do[17] VGND VGND VPWR VPWR Do[17] 
+ sky130_fd_sc_hd__dfxtp_1 
XDo_FF[18] CLK SLICE[0].RAM8x32.Do[18] VGND VGND VPWR VPWR Do[18] 
+ sky130_fd_sc_hd__dfxtp_1 
XDo_FF[19] CLK SLICE[0].RAM8x32.Do[19] VGND VGND VPWR VPWR Do[19] 
+ sky130_fd_sc_hd__dfxtp_1 
XDo_FF[1] CLK SLICE[0].RAM8x32.Do[1] VGND VGND VPWR VPWR Do[1] 
+ sky130_fd_sc_hd__dfxtp_1 
XDo_FF[20] CLK SLICE[0].RAM8x32.Do[20] VGND VGND VPWR VPWR Do[20] 
+ sky130_fd_sc_hd__dfxtp_1 
XDo_FF[21] CLK SLICE[0].RAM8x32.Do[21] VGND VGND VPWR VPWR Do[21] 
+ sky130_fd_sc_hd__dfxtp_1 
XDo_FF[22] CLK SLICE[0].RAM8x32.Do[22] VGND VGND VPWR VPWR Do[22] 
+ sky130_fd_sc_hd__dfxtp_1 
XDo_FF[23] CLK SLICE[0].RAM8x32.Do[23] VGND VGND VPWR VPWR Do[23] 
+ sky130_fd_sc_hd__dfxtp_1 
XDo_FF[24] CLK SLICE[0].RAM8x32.Do[24] VGND VGND VPWR VPWR Do[24] 
+ sky130_fd_sc_hd__dfxtp_1 
XDo_FF[25] CLK SLICE[0].RAM8x32.Do[25] VGND VGND VPWR VPWR Do[25] 
+ sky130_fd_sc_hd__dfxtp_1 
XDo_FF[26] CLK SLICE[0].RAM8x32.Do[26] VGND VGND VPWR VPWR Do[26] 
+ sky130_fd_sc_hd__dfxtp_1 
XDo_FF[27] CLK SLICE[0].RAM8x32.Do[27] VGND VGND VPWR VPWR Do[27] 
+ sky130_fd_sc_hd__dfxtp_1 
XDo_FF[28] CLK SLICE[0].RAM8x32.Do[28] VGND VGND VPWR VPWR Do[28] 
+ sky130_fd_sc_hd__dfxtp_1 
XDo_FF[29] CLK SLICE[0].RAM8x32.Do[29] VGND VGND VPWR VPWR Do[29] 
+ sky130_fd_sc_hd__dfxtp_1 
XDo_FF[2] CLK SLICE[0].RAM8x32.Do[2] VGND VGND VPWR VPWR Do[2] 
+ sky130_fd_sc_hd__dfxtp_1 
XDo_FF[30] CLK SLICE[0].RAM8x32.Do[30] VGND VGND VPWR VPWR Do[30] 
+ sky130_fd_sc_hd__dfxtp_1 
XDo_FF[31] CLK SLICE[0].RAM8x32.Do[31] VGND VGND VPWR VPWR Do[31] 
+ sky130_fd_sc_hd__dfxtp_1 
XDo_FF[3] CLK SLICE[0].RAM8x32.Do[3] VGND VGND VPWR VPWR Do[3] 
+ sky130_fd_sc_hd__dfxtp_1 
XDo_FF[4] CLK SLICE[0].RAM8x32.Do[4] VGND VGND VPWR VPWR Do[4] 
+ sky130_fd_sc_hd__dfxtp_1 
XDo_FF[5] CLK SLICE[0].RAM8x32.Do[5] VGND VGND VPWR VPWR Do[5] 
+ sky130_fd_sc_hd__dfxtp_1 
XDo_FF[6] CLK SLICE[0].RAM8x32.Do[6] VGND VGND VPWR VPWR Do[6] 
+ sky130_fd_sc_hd__dfxtp_1 
XDo_FF[7] CLK SLICE[0].RAM8x32.Do[7] VGND VGND VPWR VPWR Do[7] 
+ sky130_fd_sc_hd__dfxtp_1 
XDo_FF[8] CLK SLICE[0].RAM8x32.Do[8] VGND VGND VPWR VPWR Do[8] 
+ sky130_fd_sc_hd__dfxtp_1 
XDo_FF[9] CLK SLICE[0].RAM8x32.Do[9] VGND VGND VPWR VPWR Do[9] 
+ sky130_fd_sc_hd__dfxtp_1 
XENBUF EN VGND VGND VPWR VPWR DEC.EN sky130_fd_sc_hd__clkbuf_2 
XFBUFENBUF[0] EN VGND VGND VPWR VPWR float_buf_en[0] sky130_fd_sc_hd__clkbuf_2 
XFBUFENBUF[1] EN VGND VGND VPWR VPWR float_buf_en[1] sky130_fd_sc_hd__clkbuf_2 
XFBUFENBUF[2] EN VGND VGND VPWR VPWR float_buf_en[2] sky130_fd_sc_hd__clkbuf_2 
XFBUFENBUF[3] EN VGND VGND VPWR VPWR float_buf_en[3] sky130_fd_sc_hd__clkbuf_2 
XFLOATBUF_B0[0] lo[0] float_buf_en[0] VGND VGND VPWR VPWR 
+ SLICE[0].RAM8x32.Do[0] sky130_fd_sc_hd__ebufn_2 
XFLOATBUF_B0[1] lo[0] float_buf_en[0] VGND VGND VPWR VPWR 
+ SLICE[0].RAM8x32.Do[1] sky130_fd_sc_hd__ebufn_2 
XFLOATBUF_B0[2] lo[0] float_buf_en[0] VGND VGND VPWR VPWR 
+ SLICE[0].RAM8x32.Do[2] sky130_fd_sc_hd__ebufn_2 
XFLOATBUF_B0[3] lo[0] float_buf_en[0] VGND VGND VPWR VPWR 
+ SLICE[0].RAM8x32.Do[3] sky130_fd_sc_hd__ebufn_2 
XFLOATBUF_B0[4] lo[0] float_buf_en[0] VGND VGND VPWR VPWR 
+ SLICE[0].RAM8x32.Do[4] sky130_fd_sc_hd__ebufn_2 
XFLOATBUF_B0[5] lo[0] float_buf_en[0] VGND VGND VPWR VPWR 
+ SLICE[0].RAM8x32.Do[5] sky130_fd_sc_hd__ebufn_2 
XFLOATBUF_B0[6] lo[0] float_buf_en[0] VGND VGND VPWR VPWR 
+ SLICE[0].RAM8x32.Do[6] sky130_fd_sc_hd__ebufn_2 
XFLOATBUF_B0[7] lo[0] float_buf_en[0] VGND VGND VPWR VPWR 
+ SLICE[0].RAM8x32.Do[7] sky130_fd_sc_hd__ebufn_2 
XFLOATBUF_B1[10] lo[1] float_buf_en[1] VGND VGND VPWR VPWR 
+ SLICE[0].RAM8x32.Do[10] sky130_fd_sc_hd__ebufn_2 
XFLOATBUF_B1[11] lo[1] float_buf_en[1] VGND VGND VPWR VPWR 
+ SLICE[0].RAM8x32.Do[11] sky130_fd_sc_hd__ebufn_2 
XFLOATBUF_B1[12] lo[1] float_buf_en[1] VGND VGND VPWR VPWR 
+ SLICE[0].RAM8x32.Do[12] sky130_fd_sc_hd__ebufn_2 
XFLOATBUF_B1[13] lo[1] float_buf_en[1] VGND VGND VPWR VPWR 
+ SLICE[0].RAM8x32.Do[13] sky130_fd_sc_hd__ebufn_2 
XFLOATBUF_B1[14] lo[1] float_buf_en[1] VGND VGND VPWR VPWR 
+ SLICE[0].RAM8x32.Do[14] sky130_fd_sc_hd__ebufn_2 
XFLOATBUF_B1[15] lo[1] float_buf_en[1] VGND VGND VPWR VPWR 
+ SLICE[0].RAM8x32.Do[15] sky130_fd_sc_hd__ebufn_2 
XFLOATBUF_B1[8] lo[1] float_buf_en[1] VGND VGND VPWR VPWR 
+ SLICE[0].RAM8x32.Do[8] sky130_fd_sc_hd__ebufn_2 
XFLOATBUF_B1[9] lo[1] float_buf_en[1] VGND VGND VPWR VPWR 
+ SLICE[0].RAM8x32.Do[9] sky130_fd_sc_hd__ebufn_2 
XFLOATBUF_B2[16] lo[2] float_buf_en[2] VGND VGND VPWR VPWR 
+ SLICE[0].RAM8x32.Do[16] sky130_fd_sc_hd__ebufn_2 
XFLOATBUF_B2[17] lo[2] float_buf_en[2] VGND VGND VPWR VPWR 
+ SLICE[0].RAM8x32.Do[17] sky130_fd_sc_hd__ebufn_2 
XFLOATBUF_B2[18] lo[2] float_buf_en[2] VGND VGND VPWR VPWR 
+ SLICE[0].RAM8x32.Do[18] sky130_fd_sc_hd__ebufn_2 
XFLOATBUF_B2[19] lo[2] float_buf_en[2] VGND VGND VPWR VPWR 
+ SLICE[0].RAM8x32.Do[19] sky130_fd_sc_hd__ebufn_2 
XFLOATBUF_B2[20] lo[2] float_buf_en[2] VGND VGND VPWR VPWR 
+ SLICE[0].RAM8x32.Do[20] sky130_fd_sc_hd__ebufn_2 
XFLOATBUF_B2[21] lo[2] float_buf_en[2] VGND VGND VPWR VPWR 
+ SLICE[0].RAM8x32.Do[21] sky130_fd_sc_hd__ebufn_2 
XFLOATBUF_B2[22] lo[2] float_buf_en[2] VGND VGND VPWR VPWR 
+ SLICE[0].RAM8x32.Do[22] sky130_fd_sc_hd__ebufn_2 
XFLOATBUF_B2[23] lo[2] float_buf_en[2] VGND VGND VPWR VPWR 
+ SLICE[0].RAM8x32.Do[23] sky130_fd_sc_hd__ebufn_2 
XFLOATBUF_B3[24] lo[3] float_buf_en[3] VGND VGND VPWR VPWR 
+ SLICE[0].RAM8x32.Do[24] sky130_fd_sc_hd__ebufn_2 
XFLOATBUF_B3[25] lo[3] float_buf_en[3] VGND VGND VPWR VPWR 
+ SLICE[0].RAM8x32.Do[25] sky130_fd_sc_hd__ebufn_2 
XFLOATBUF_B3[26] lo[3] float_buf_en[3] VGND VGND VPWR VPWR 
+ SLICE[0].RAM8x32.Do[26] sky130_fd_sc_hd__ebufn_2 
XFLOATBUF_B3[27] lo[3] float_buf_en[3] VGND VGND VPWR VPWR 
+ SLICE[0].RAM8x32.Do[27] sky130_fd_sc_hd__ebufn_2 
XFLOATBUF_B3[28] lo[3] float_buf_en[3] VGND VGND VPWR VPWR 
+ SLICE[0].RAM8x32.Do[28] sky130_fd_sc_hd__ebufn_2 
XFLOATBUF_B3[29] lo[3] float_buf_en[3] VGND VGND VPWR VPWR 
+ SLICE[0].RAM8x32.Do[29] sky130_fd_sc_hd__ebufn_2 
XFLOATBUF_B3[30] lo[3] float_buf_en[3] VGND VGND VPWR VPWR 
+ SLICE[0].RAM8x32.Do[30] sky130_fd_sc_hd__ebufn_2 
XFLOATBUF_B3[31] lo[3] float_buf_en[3] VGND VGND VPWR VPWR 
+ SLICE[0].RAM8x32.Do[31] sky130_fd_sc_hd__ebufn_2 
XSLICE[0].RAM8x32.CLKBUF SLICE[0].RAM8x32.CLK VGND VGND VPWR VPWR 
+ SLICE[0].RAM8x32.CLK_buf sky130_fd_sc_hd__clkbuf_2 
XSLICE[0].RAM8x32.DEC.ABUF[0] SLICE[0].RAM8x32.A[0] VGND VGND VPWR VPWR 
+ SLICE[0].RAM8x32.DEC.A_buf[0] sky130_fd_sc_hd__clkbuf_2 
XSLICE[0].RAM8x32.DEC.ABUF[1] SLICE[0].RAM8x32.A[1] VGND VGND VPWR VPWR 
+ SLICE[0].RAM8x32.DEC.A_buf[1] sky130_fd_sc_hd__clkbuf_2 
XSLICE[0].RAM8x32.DEC.ABUF[2] SLICE[0].RAM8x32.A[2] VGND VGND VPWR VPWR 
+ SLICE[0].RAM8x32.DEC.A_buf[2] sky130_fd_sc_hd__clkbuf_2 
XSLICE[0].RAM8x32.DEC.AND0 SLICE[0].RAM8x32.DEC.A_buf[0] 
+ SLICE[0].RAM8x32.DEC.A_buf[1] SLICE[0].RAM8x32.DEC.A_buf[2] 
+ SLICE[0].RAM8x32.DEC.EN_buf VGND VGND VPWR VPWR 
+ SLICE[0].RAM8x32.WORD[0].W.SEL sky130_fd_sc_hd__nor4b_2 
XSLICE[0].RAM8x32.DEC.AND1 SLICE[0].RAM8x32.DEC.A_buf[2] 
+ SLICE[0].RAM8x32.DEC.A_buf[1] SLICE[0].RAM8x32.DEC.A_buf[0] 
+ SLICE[0].RAM8x32.DEC.EN_buf VGND VGND VPWR VPWR 
+ SLICE[0].RAM8x32.WORD[1].W.SEL sky130_fd_sc_hd__and4bb_2 
XSLICE[0].RAM8x32.DEC.AND2 SLICE[0].RAM8x32.DEC.A_buf[2] 
+ SLICE[0].RAM8x32.DEC.A_buf[0] SLICE[0].RAM8x32.DEC.A_buf[1] 
+ SLICE[0].RAM8x32.DEC.EN_buf VGND VGND VPWR VPWR 
+ SLICE[0].RAM8x32.WORD[2].W.SEL sky130_fd_sc_hd__and4bb_2 
XSLICE[0].RAM8x32.DEC.AND3 SLICE[0].RAM8x32.DEC.A_buf[2] 
+ SLICE[0].RAM8x32.DEC.A_buf[1] SLICE[0].RAM8x32.DEC.A_buf[0] 
+ SLICE[0].RAM8x32.DEC.EN_buf VGND VGND VPWR VPWR 
+ SLICE[0].RAM8x32.WORD[3].W.SEL sky130_fd_sc_hd__and4b_2 
XSLICE[0].RAM8x32.DEC.AND4 SLICE[0].RAM8x32.DEC.A_buf[0] 
+ SLICE[0].RAM8x32.DEC.A_buf[1] SLICE[0].RAM8x32.DEC.A_buf[2] 
+ SLICE[0].RAM8x32.DEC.EN_buf VGND VGND VPWR VPWR 
+ SLICE[0].RAM8x32.WORD[4].W.SEL sky130_fd_sc_hd__and4bb_2 
XSLICE[0].RAM8x32.DEC.AND5 SLICE[0].RAM8x32.DEC.A_buf[1] 
+ SLICE[0].RAM8x32.DEC.A_buf[0] SLICE[0].RAM8x32.DEC.A_buf[2] 
+ SLICE[0].RAM8x32.DEC.EN_buf VGND VGND VPWR VPWR 
+ SLICE[0].RAM8x32.WORD[5].W.SEL sky130_fd_sc_hd__and4b_2 
XSLICE[0].RAM8x32.DEC.AND6 SLICE[0].RAM8x32.DEC.A_buf[0] 
+ SLICE[0].RAM8x32.DEC.A_buf[1] SLICE[0].RAM8x32.DEC.A_buf[2] 
+ SLICE[0].RAM8x32.DEC.EN_buf VGND VGND VPWR VPWR 
+ SLICE[0].RAM8x32.WORD[6].W.SEL sky130_fd_sc_hd__and4b_2 
XSLICE[0].RAM8x32.DEC.AND7 SLICE[0].RAM8x32.DEC.A_buf[0] 
+ SLICE[0].RAM8x32.DEC.A_buf[1] SLICE[0].RAM8x32.DEC.A_buf[2] 
+ SLICE[0].RAM8x32.DEC.EN_buf VGND VGND VPWR VPWR 
+ SLICE[0].RAM8x32.WORD[7].W.SEL sky130_fd_sc_hd__and4_2 
XSLICE[0].RAM8x32.DEC.ENBUF SLICE[0].RAM8x32.DEC.EN VGND VGND VPWR VPWR 
+ SLICE[0].RAM8x32.DEC.EN_buf sky130_fd_sc_hd__clkbuf_2 
XSLICE[0].RAM8x32.WEBUF[0] SLICE[0].RAM8x32.WE[0] VGND VGND VPWR VPWR 
+ SLICE[0].RAM8x32.WORD[0].W.B0.WE sky130_fd_sc_hd__clkbuf_2 
XSLICE[0].RAM8x32.WEBUF[1] SLICE[0].RAM8x32.WE[1] VGND VGND VPWR VPWR 
+ SLICE[0].RAM8x32.WORD[0].W.B1.WE sky130_fd_sc_hd__clkbuf_2 
XSLICE[0].RAM8x32.WEBUF[2] SLICE[0].RAM8x32.WE[2] VGND VGND VPWR VPWR 
+ SLICE[0].RAM8x32.WORD[0].W.B2.WE sky130_fd_sc_hd__clkbuf_2 
XSLICE[0].RAM8x32.WEBUF[3] SLICE[0].RAM8x32.WE[3] VGND VGND VPWR VPWR 
+ SLICE[0].RAM8x32.WORD[0].W.B3.WE sky130_fd_sc_hd__clkbuf_2 
XSLICE[0].RAM8x32.WORD[0].W.B0.BIT[0].LATCH SLICE[0].RAM8x32.Di[0] 
+ SLICE[0].RAM8x32.WORD[0].W.B0.GCLK VGND VGND VPWR VPWR 
+ SLICE[0].RAM8x32.WORD[0].W.B0.q_wire[0] sky130_fd_sc_hd__dlxtp_1 
XSLICE[0].RAM8x32.WORD[0].W.B0.BIT[0].OBUF 
+ SLICE[0].RAM8x32.WORD[0].W.B0.q_wire[0] SLICE[0].RAM8x32.WORD[0].W.B0.SEL_B 
+ VGND VGND VPWR VPWR SLICE[0].RAM8x32.Do[0] sky130_fd_sc_hd__ebufn_2 
XSLICE[0].RAM8x32.WORD[0].W.B0.BIT[1].LATCH SLICE[0].RAM8x32.Di[1] 
+ SLICE[0].RAM8x32.WORD[0].W.B0.GCLK VGND VGND VPWR VPWR 
+ SLICE[0].RAM8x32.WORD[0].W.B0.q_wire[1] sky130_fd_sc_hd__dlxtp_1 
XSLICE[0].RAM8x32.WORD[0].W.B0.BIT[1].OBUF 
+ SLICE[0].RAM8x32.WORD[0].W.B0.q_wire[1] SLICE[0].RAM8x32.WORD[0].W.B0.SEL_B 
+ VGND VGND VPWR VPWR SLICE[0].RAM8x32.Do[1] sky130_fd_sc_hd__ebufn_2 
XSLICE[0].RAM8x32.WORD[0].W.B0.BIT[2].LATCH SLICE[0].RAM8x32.Di[2] 
+ SLICE[0].RAM8x32.WORD[0].W.B0.GCLK VGND VGND VPWR VPWR 
+ SLICE[0].RAM8x32.WORD[0].W.B0.q_wire[2] sky130_fd_sc_hd__dlxtp_1 
XSLICE[0].RAM8x32.WORD[0].W.B0.BIT[2].OBUF 
+ SLICE[0].RAM8x32.WORD[0].W.B0.q_wire[2] SLICE[0].RAM8x32.WORD[0].W.B0.SEL_B 
+ VGND VGND VPWR VPWR SLICE[0].RAM8x32.Do[2] sky130_fd_sc_hd__ebufn_2 
XSLICE[0].RAM8x32.WORD[0].W.B0.BIT[3].LATCH SLICE[0].RAM8x32.Di[3] 
+ SLICE[0].RAM8x32.WORD[0].W.B0.GCLK VGND VGND VPWR VPWR 
+ SLICE[0].RAM8x32.WORD[0].W.B0.q_wire[3] sky130_fd_sc_hd__dlxtp_1 
XSLICE[0].RAM8x32.WORD[0].W.B0.BIT[3].OBUF 
+ SLICE[0].RAM8x32.WORD[0].W.B0.q_wire[3] SLICE[0].RAM8x32.WORD[0].W.B0.SEL_B 
+ VGND VGND VPWR VPWR SLICE[0].RAM8x32.Do[3] sky130_fd_sc_hd__ebufn_2 
XSLICE[0].RAM8x32.WORD[0].W.B0.BIT[4].LATCH SLICE[0].RAM8x32.Di[4] 
+ SLICE[0].RAM8x32.WORD[0].W.B0.GCLK VGND VGND VPWR VPWR 
+ SLICE[0].RAM8x32.WORD[0].W.B0.q_wire[4] sky130_fd_sc_hd__dlxtp_1 
XSLICE[0].RAM8x32.WORD[0].W.B0.BIT[4].OBUF 
+ SLICE[0].RAM8x32.WORD[0].W.B0.q_wire[4] SLICE[0].RAM8x32.WORD[0].W.B0.SEL_B 
+ VGND VGND VPWR VPWR SLICE[0].RAM8x32.Do[4] sky130_fd_sc_hd__ebufn_2 
XSLICE[0].RAM8x32.WORD[0].W.B0.BIT[5].LATCH SLICE[0].RAM8x32.Di[5] 
+ SLICE[0].RAM8x32.WORD[0].W.B0.GCLK VGND VGND VPWR VPWR 
+ SLICE[0].RAM8x32.WORD[0].W.B0.q_wire[5] sky130_fd_sc_hd__dlxtp_1 
XSLICE[0].RAM8x32.WORD[0].W.B0.BIT[5].OBUF 
+ SLICE[0].RAM8x32.WORD[0].W.B0.q_wire[5] SLICE[0].RAM8x32.WORD[0].W.B0.SEL_B 
+ VGND VGND VPWR VPWR SLICE[0].RAM8x32.Do[5] sky130_fd_sc_hd__ebufn_2 
XSLICE[0].RAM8x32.WORD[0].W.B0.BIT[6].LATCH SLICE[0].RAM8x32.Di[6] 
+ SLICE[0].RAM8x32.WORD[0].W.B0.GCLK VGND VGND VPWR VPWR 
+ SLICE[0].RAM8x32.WORD[0].W.B0.q_wire[6] sky130_fd_sc_hd__dlxtp_1 
XSLICE[0].RAM8x32.WORD[0].W.B0.BIT[6].OBUF 
+ SLICE[0].RAM8x32.WORD[0].W.B0.q_wire[6] SLICE[0].RAM8x32.WORD[0].W.B0.SEL_B 
+ VGND VGND VPWR VPWR SLICE[0].RAM8x32.Do[6] sky130_fd_sc_hd__ebufn_2 
XSLICE[0].RAM8x32.WORD[0].W.B0.BIT[7].LATCH SLICE[0].RAM8x32.Di[7] 
+ SLICE[0].RAM8x32.WORD[0].W.B0.GCLK VGND VGND VPWR VPWR 
+ SLICE[0].RAM8x32.WORD[0].W.B0.q_wire[7] sky130_fd_sc_hd__dlxtp_1 
XSLICE[0].RAM8x32.WORD[0].W.B0.BIT[7].OBUF 
+ SLICE[0].RAM8x32.WORD[0].W.B0.q_wire[7] SLICE[0].RAM8x32.WORD[0].W.B0.SEL_B 
+ VGND VGND VPWR VPWR SLICE[0].RAM8x32.Do[7] sky130_fd_sc_hd__ebufn_2 
XSLICE[0].RAM8x32.WORD[0].W.B0.CG SLICE[0].RAM8x32.WORD[0].W.B0.CLK_B 
+ SLICE[0].RAM8x32.WORD[0].W.B0.we_wire VGND VGND VPWR VPWR 
+ SLICE[0].RAM8x32.WORD[0].W.B0.GCLK sky130_fd_sc_hd__dlclkp_1 
XSLICE[0].RAM8x32.WORD[0].W.B0.CGAND SLICE[0].RAM8x32.WORD[0].W.B0.SEL 
+ SLICE[0].RAM8x32.WORD[0].W.B0.WE VGND VGND VPWR VPWR 
+ SLICE[0].RAM8x32.WORD[0].W.B0.we_wire sky130_fd_sc_hd__and2_1 
XSLICE[0].RAM8x32.WORD[0].W.B0.CLKINV SLICE[0].RAM8x32.WORD[0].W.B0.CLK VGND 
+ VGND VPWR VPWR SLICE[0].RAM8x32.WORD[0].W.B0.CLK_B sky130_fd_sc_hd__inv_1 
XSLICE[0].RAM8x32.WORD[0].W.B0.SELINV SLICE[0].RAM8x32.WORD[0].W.B0.SEL VGND 
+ VGND VPWR VPWR SLICE[0].RAM8x32.WORD[0].W.B0.SEL_B sky130_fd_sc_hd__inv_1 
XSLICE[0].RAM8x32.WORD[0].W.B1.BIT[0].LATCH SLICE[0].RAM8x32.Di[8] 
+ SLICE[0].RAM8x32.WORD[0].W.B1.GCLK VGND VGND VPWR VPWR 
+ SLICE[0].RAM8x32.WORD[0].W.B1.q_wire[0] sky130_fd_sc_hd__dlxtp_1 
XSLICE[0].RAM8x32.WORD[0].W.B1.BIT[0].OBUF 
+ SLICE[0].RAM8x32.WORD[0].W.B1.q_wire[0] SLICE[0].RAM8x32.WORD[0].W.B1.SEL_B 
+ VGND VGND VPWR VPWR SLICE[0].RAM8x32.Do[8] sky130_fd_sc_hd__ebufn_2 
XSLICE[0].RAM8x32.WORD[0].W.B1.BIT[1].LATCH SLICE[0].RAM8x32.Di[9] 
+ SLICE[0].RAM8x32.WORD[0].W.B1.GCLK VGND VGND VPWR VPWR 
+ SLICE[0].RAM8x32.WORD[0].W.B1.q_wire[1] sky130_fd_sc_hd__dlxtp_1 
XSLICE[0].RAM8x32.WORD[0].W.B1.BIT[1].OBUF 
+ SLICE[0].RAM8x32.WORD[0].W.B1.q_wire[1] SLICE[0].RAM8x32.WORD[0].W.B1.SEL_B 
+ VGND VGND VPWR VPWR SLICE[0].RAM8x32.Do[9] sky130_fd_sc_hd__ebufn_2 
XSLICE[0].RAM8x32.WORD[0].W.B1.BIT[2].LATCH SLICE[0].RAM8x32.Di[10] 
+ SLICE[0].RAM8x32.WORD[0].W.B1.GCLK VGND VGND VPWR VPWR 
+ SLICE[0].RAM8x32.WORD[0].W.B1.q_wire[2] sky130_fd_sc_hd__dlxtp_1 
XSLICE[0].RAM8x32.WORD[0].W.B1.BIT[2].OBUF 
+ SLICE[0].RAM8x32.WORD[0].W.B1.q_wire[2] SLICE[0].RAM8x32.WORD[0].W.B1.SEL_B 
+ VGND VGND VPWR VPWR SLICE[0].RAM8x32.Do[10] sky130_fd_sc_hd__ebufn_2 
XSLICE[0].RAM8x32.WORD[0].W.B1.BIT[3].LATCH SLICE[0].RAM8x32.Di[11] 
+ SLICE[0].RAM8x32.WORD[0].W.B1.GCLK VGND VGND VPWR VPWR 
+ SLICE[0].RAM8x32.WORD[0].W.B1.q_wire[3] sky130_fd_sc_hd__dlxtp_1 
XSLICE[0].RAM8x32.WORD[0].W.B1.BIT[3].OBUF 
+ SLICE[0].RAM8x32.WORD[0].W.B1.q_wire[3] SLICE[0].RAM8x32.WORD[0].W.B1.SEL_B 
+ VGND VGND VPWR VPWR SLICE[0].RAM8x32.Do[11] sky130_fd_sc_hd__ebufn_2 
XSLICE[0].RAM8x32.WORD[0].W.B1.BIT[4].LATCH SLICE[0].RAM8x32.Di[12] 
+ SLICE[0].RAM8x32.WORD[0].W.B1.GCLK VGND VGND VPWR VPWR 
+ SLICE[0].RAM8x32.WORD[0].W.B1.q_wire[4] sky130_fd_sc_hd__dlxtp_1 
XSLICE[0].RAM8x32.WORD[0].W.B1.BIT[4].OBUF 
+ SLICE[0].RAM8x32.WORD[0].W.B1.q_wire[4] SLICE[0].RAM8x32.WORD[0].W.B1.SEL_B 
+ VGND VGND VPWR VPWR SLICE[0].RAM8x32.Do[12] sky130_fd_sc_hd__ebufn_2 
XSLICE[0].RAM8x32.WORD[0].W.B1.BIT[5].LATCH SLICE[0].RAM8x32.Di[13] 
+ SLICE[0].RAM8x32.WORD[0].W.B1.GCLK VGND VGND VPWR VPWR 
+ SLICE[0].RAM8x32.WORD[0].W.B1.q_wire[5] sky130_fd_sc_hd__dlxtp_1 
XSLICE[0].RAM8x32.WORD[0].W.B1.BIT[5].OBUF 
+ SLICE[0].RAM8x32.WORD[0].W.B1.q_wire[5] SLICE[0].RAM8x32.WORD[0].W.B1.SEL_B 
+ VGND VGND VPWR VPWR SLICE[0].RAM8x32.Do[13] sky130_fd_sc_hd__ebufn_2 
XSLICE[0].RAM8x32.WORD[0].W.B1.BIT[6].LATCH SLICE[0].RAM8x32.Di[14] 
+ SLICE[0].RAM8x32.WORD[0].W.B1.GCLK VGND VGND VPWR VPWR 
+ SLICE[0].RAM8x32.WORD[0].W.B1.q_wire[6] sky130_fd_sc_hd__dlxtp_1 
XSLICE[0].RAM8x32.WORD[0].W.B1.BIT[6].OBUF 
+ SLICE[0].RAM8x32.WORD[0].W.B1.q_wire[6] SLICE[0].RAM8x32.WORD[0].W.B1.SEL_B 
+ VGND VGND VPWR VPWR SLICE[0].RAM8x32.Do[14] sky130_fd_sc_hd__ebufn_2 
XSLICE[0].RAM8x32.WORD[0].W.B1.BIT[7].LATCH SLICE[0].RAM8x32.Di[15] 
+ SLICE[0].RAM8x32.WORD[0].W.B1.GCLK VGND VGND VPWR VPWR 
+ SLICE[0].RAM8x32.WORD[0].W.B1.q_wire[7] sky130_fd_sc_hd__dlxtp_1 
XSLICE[0].RAM8x32.WORD[0].W.B1.BIT[7].OBUF 
+ SLICE[0].RAM8x32.WORD[0].W.B1.q_wire[7] SLICE[0].RAM8x32.WORD[0].W.B1.SEL_B 
+ VGND VGND VPWR VPWR SLICE[0].RAM8x32.Do[15] sky130_fd_sc_hd__ebufn_2 
XSLICE[0].RAM8x32.WORD[0].W.B1.CG SLICE[0].RAM8x32.WORD[0].W.B1.CLK_B 
+ SLICE[0].RAM8x32.WORD[0].W.B1.we_wire VGND VGND VPWR VPWR 
+ SLICE[0].RAM8x32.WORD[0].W.B1.GCLK sky130_fd_sc_hd__dlclkp_1 
XSLICE[0].RAM8x32.WORD[0].W.B1.CGAND SLICE[0].RAM8x32.WORD[0].W.B0.SEL 
+ SLICE[0].RAM8x32.WORD[0].W.B1.WE VGND VGND VPWR VPWR 
+ SLICE[0].RAM8x32.WORD[0].W.B1.we_wire sky130_fd_sc_hd__and2_1 
XSLICE[0].RAM8x32.WORD[0].W.B1.CLKINV SLICE[0].RAM8x32.WORD[0].W.B0.CLK VGND 
+ VGND VPWR VPWR SLICE[0].RAM8x32.WORD[0].W.B1.CLK_B sky130_fd_sc_hd__inv_1 
XSLICE[0].RAM8x32.WORD[0].W.B1.SELINV SLICE[0].RAM8x32.WORD[0].W.B0.SEL VGND 
+ VGND VPWR VPWR SLICE[0].RAM8x32.WORD[0].W.B1.SEL_B sky130_fd_sc_hd__inv_1 
XSLICE[0].RAM8x32.WORD[0].W.B2.BIT[0].LATCH SLICE[0].RAM8x32.Di[16] 
+ SLICE[0].RAM8x32.WORD[0].W.B2.GCLK VGND VGND VPWR VPWR 
+ SLICE[0].RAM8x32.WORD[0].W.B2.q_wire[0] sky130_fd_sc_hd__dlxtp_1 
XSLICE[0].RAM8x32.WORD[0].W.B2.BIT[0].OBUF 
+ SLICE[0].RAM8x32.WORD[0].W.B2.q_wire[0] SLICE[0].RAM8x32.WORD[0].W.B2.SEL_B 
+ VGND VGND VPWR VPWR SLICE[0].RAM8x32.Do[16] sky130_fd_sc_hd__ebufn_2 
XSLICE[0].RAM8x32.WORD[0].W.B2.BIT[1].LATCH SLICE[0].RAM8x32.Di[17] 
+ SLICE[0].RAM8x32.WORD[0].W.B2.GCLK VGND VGND VPWR VPWR 
+ SLICE[0].RAM8x32.WORD[0].W.B2.q_wire[1] sky130_fd_sc_hd__dlxtp_1 
XSLICE[0].RAM8x32.WORD[0].W.B2.BIT[1].OBUF 
+ SLICE[0].RAM8x32.WORD[0].W.B2.q_wire[1] SLICE[0].RAM8x32.WORD[0].W.B2.SEL_B 
+ VGND VGND VPWR VPWR SLICE[0].RAM8x32.Do[17] sky130_fd_sc_hd__ebufn_2 
XSLICE[0].RAM8x32.WORD[0].W.B2.BIT[2].LATCH SLICE[0].RAM8x32.Di[18] 
+ SLICE[0].RAM8x32.WORD[0].W.B2.GCLK VGND VGND VPWR VPWR 
+ SLICE[0].RAM8x32.WORD[0].W.B2.q_wire[2] sky130_fd_sc_hd__dlxtp_1 
XSLICE[0].RAM8x32.WORD[0].W.B2.BIT[2].OBUF 
+ SLICE[0].RAM8x32.WORD[0].W.B2.q_wire[2] SLICE[0].RAM8x32.WORD[0].W.B2.SEL_B 
+ VGND VGND VPWR VPWR SLICE[0].RAM8x32.Do[18] sky130_fd_sc_hd__ebufn_2 
XSLICE[0].RAM8x32.WORD[0].W.B2.BIT[3].LATCH SLICE[0].RAM8x32.Di[19] 
+ SLICE[0].RAM8x32.WORD[0].W.B2.GCLK VGND VGND VPWR VPWR 
+ SLICE[0].RAM8x32.WORD[0].W.B2.q_wire[3] sky130_fd_sc_hd__dlxtp_1 
XSLICE[0].RAM8x32.WORD[0].W.B2.BIT[3].OBUF 
+ SLICE[0].RAM8x32.WORD[0].W.B2.q_wire[3] SLICE[0].RAM8x32.WORD[0].W.B2.SEL_B 
+ VGND VGND VPWR VPWR SLICE[0].RAM8x32.Do[19] sky130_fd_sc_hd__ebufn_2 
XSLICE[0].RAM8x32.WORD[0].W.B2.BIT[4].LATCH SLICE[0].RAM8x32.Di[20] 
+ SLICE[0].RAM8x32.WORD[0].W.B2.GCLK VGND VGND VPWR VPWR 
+ SLICE[0].RAM8x32.WORD[0].W.B2.q_wire[4] sky130_fd_sc_hd__dlxtp_1 
XSLICE[0].RAM8x32.WORD[0].W.B2.BIT[4].OBUF 
+ SLICE[0].RAM8x32.WORD[0].W.B2.q_wire[4] SLICE[0].RAM8x32.WORD[0].W.B2.SEL_B 
+ VGND VGND VPWR VPWR SLICE[0].RAM8x32.Do[20] sky130_fd_sc_hd__ebufn_2 
XSLICE[0].RAM8x32.WORD[0].W.B2.BIT[5].LATCH SLICE[0].RAM8x32.Di[21] 
+ SLICE[0].RAM8x32.WORD[0].W.B2.GCLK VGND VGND VPWR VPWR 
+ SLICE[0].RAM8x32.WORD[0].W.B2.q_wire[5] sky130_fd_sc_hd__dlxtp_1 
XSLICE[0].RAM8x32.WORD[0].W.B2.BIT[5].OBUF 
+ SLICE[0].RAM8x32.WORD[0].W.B2.q_wire[5] SLICE[0].RAM8x32.WORD[0].W.B2.SEL_B 
+ VGND VGND VPWR VPWR SLICE[0].RAM8x32.Do[21] sky130_fd_sc_hd__ebufn_2 
XSLICE[0].RAM8x32.WORD[0].W.B2.BIT[6].LATCH SLICE[0].RAM8x32.Di[22] 
+ SLICE[0].RAM8x32.WORD[0].W.B2.GCLK VGND VGND VPWR VPWR 
+ SLICE[0].RAM8x32.WORD[0].W.B2.q_wire[6] sky130_fd_sc_hd__dlxtp_1 
XSLICE[0].RAM8x32.WORD[0].W.B2.BIT[6].OBUF 
+ SLICE[0].RAM8x32.WORD[0].W.B2.q_wire[6] SLICE[0].RAM8x32.WORD[0].W.B2.SEL_B 
+ VGND VGND VPWR VPWR SLICE[0].RAM8x32.Do[22] sky130_fd_sc_hd__ebufn_2 
XSLICE[0].RAM8x32.WORD[0].W.B2.BIT[7].LATCH SLICE[0].RAM8x32.Di[23] 
+ SLICE[0].RAM8x32.WORD[0].W.B2.GCLK VGND VGND VPWR VPWR 
+ SLICE[0].RAM8x32.WORD[0].W.B2.q_wire[7] sky130_fd_sc_hd__dlxtp_1 
XSLICE[0].RAM8x32.WORD[0].W.B2.BIT[7].OBUF 
+ SLICE[0].RAM8x32.WORD[0].W.B2.q_wire[7] SLICE[0].RAM8x32.WORD[0].W.B2.SEL_B 
+ VGND VGND VPWR VPWR SLICE[0].RAM8x32.Do[23] sky130_fd_sc_hd__ebufn_2 
XSLICE[0].RAM8x32.WORD[0].W.B2.CG SLICE[0].RAM8x32.WORD[0].W.B2.CLK_B 
+ SLICE[0].RAM8x32.WORD[0].W.B2.we_wire VGND VGND VPWR VPWR 
+ SLICE[0].RAM8x32.WORD[0].W.B2.GCLK sky130_fd_sc_hd__dlclkp_1 
XSLICE[0].RAM8x32.WORD[0].W.B2.CGAND SLICE[0].RAM8x32.WORD[0].W.B0.SEL 
+ SLICE[0].RAM8x32.WORD[0].W.B2.WE VGND VGND VPWR VPWR 
+ SLICE[0].RAM8x32.WORD[0].W.B2.we_wire sky130_fd_sc_hd__and2_1 
XSLICE[0].RAM8x32.WORD[0].W.B2.CLKINV SLICE[0].RAM8x32.WORD[0].W.B0.CLK VGND 
+ VGND VPWR VPWR SLICE[0].RAM8x32.WORD[0].W.B2.CLK_B sky130_fd_sc_hd__inv_1 
XSLICE[0].RAM8x32.WORD[0].W.B2.SELINV SLICE[0].RAM8x32.WORD[0].W.B0.SEL VGND 
+ VGND VPWR VPWR SLICE[0].RAM8x32.WORD[0].W.B2.SEL_B sky130_fd_sc_hd__inv_1 
XSLICE[0].RAM8x32.WORD[0].W.B3.BIT[0].LATCH SLICE[0].RAM8x32.Di[24] 
+ SLICE[0].RAM8x32.WORD[0].W.B3.GCLK VGND VGND VPWR VPWR 
+ SLICE[0].RAM8x32.WORD[0].W.B3.q_wire[0] sky130_fd_sc_hd__dlxtp_1 
XSLICE[0].RAM8x32.WORD[0].W.B3.BIT[0].OBUF 
+ SLICE[0].RAM8x32.WORD[0].W.B3.q_wire[0] SLICE[0].RAM8x32.WORD[0].W.B3.SEL_B 
+ VGND VGND VPWR VPWR SLICE[0].RAM8x32.Do[24] sky130_fd_sc_hd__ebufn_2 
XSLICE[0].RAM8x32.WORD[0].W.B3.BIT[1].LATCH SLICE[0].RAM8x32.Di[25] 
+ SLICE[0].RAM8x32.WORD[0].W.B3.GCLK VGND VGND VPWR VPWR 
+ SLICE[0].RAM8x32.WORD[0].W.B3.q_wire[1] sky130_fd_sc_hd__dlxtp_1 
XSLICE[0].RAM8x32.WORD[0].W.B3.BIT[1].OBUF 
+ SLICE[0].RAM8x32.WORD[0].W.B3.q_wire[1] SLICE[0].RAM8x32.WORD[0].W.B3.SEL_B 
+ VGND VGND VPWR VPWR SLICE[0].RAM8x32.Do[25] sky130_fd_sc_hd__ebufn_2 
XSLICE[0].RAM8x32.WORD[0].W.B3.BIT[2].LATCH SLICE[0].RAM8x32.Di[26] 
+ SLICE[0].RAM8x32.WORD[0].W.B3.GCLK VGND VGND VPWR VPWR 
+ SLICE[0].RAM8x32.WORD[0].W.B3.q_wire[2] sky130_fd_sc_hd__dlxtp_1 
XSLICE[0].RAM8x32.WORD[0].W.B3.BIT[2].OBUF 
+ SLICE[0].RAM8x32.WORD[0].W.B3.q_wire[2] SLICE[0].RAM8x32.WORD[0].W.B3.SEL_B 
+ VGND VGND VPWR VPWR SLICE[0].RAM8x32.Do[26] sky130_fd_sc_hd__ebufn_2 
XSLICE[0].RAM8x32.WORD[0].W.B3.BIT[3].LATCH SLICE[0].RAM8x32.Di[27] 
+ SLICE[0].RAM8x32.WORD[0].W.B3.GCLK VGND VGND VPWR VPWR 
+ SLICE[0].RAM8x32.WORD[0].W.B3.q_wire[3] sky130_fd_sc_hd__dlxtp_1 
XSLICE[0].RAM8x32.WORD[0].W.B3.BIT[3].OBUF 
+ SLICE[0].RAM8x32.WORD[0].W.B3.q_wire[3] SLICE[0].RAM8x32.WORD[0].W.B3.SEL_B 
+ VGND VGND VPWR VPWR SLICE[0].RAM8x32.Do[27] sky130_fd_sc_hd__ebufn_2 
XSLICE[0].RAM8x32.WORD[0].W.B3.BIT[4].LATCH SLICE[0].RAM8x32.Di[28] 
+ SLICE[0].RAM8x32.WORD[0].W.B3.GCLK VGND VGND VPWR VPWR 
+ SLICE[0].RAM8x32.WORD[0].W.B3.q_wire[4] sky130_fd_sc_hd__dlxtp_1 
XSLICE[0].RAM8x32.WORD[0].W.B3.BIT[4].OBUF 
+ SLICE[0].RAM8x32.WORD[0].W.B3.q_wire[4] SLICE[0].RAM8x32.WORD[0].W.B3.SEL_B 
+ VGND VGND VPWR VPWR SLICE[0].RAM8x32.Do[28] sky130_fd_sc_hd__ebufn_2 
XSLICE[0].RAM8x32.WORD[0].W.B3.BIT[5].LATCH SLICE[0].RAM8x32.Di[29] 
+ SLICE[0].RAM8x32.WORD[0].W.B3.GCLK VGND VGND VPWR VPWR 
+ SLICE[0].RAM8x32.WORD[0].W.B3.q_wire[5] sky130_fd_sc_hd__dlxtp_1 
XSLICE[0].RAM8x32.WORD[0].W.B3.BIT[5].OBUF 
+ SLICE[0].RAM8x32.WORD[0].W.B3.q_wire[5] SLICE[0].RAM8x32.WORD[0].W.B3.SEL_B 
+ VGND VGND VPWR VPWR SLICE[0].RAM8x32.Do[29] sky130_fd_sc_hd__ebufn_2 
XSLICE[0].RAM8x32.WORD[0].W.B3.BIT[6].LATCH SLICE[0].RAM8x32.Di[30] 
+ SLICE[0].RAM8x32.WORD[0].W.B3.GCLK VGND VGND VPWR VPWR 
+ SLICE[0].RAM8x32.WORD[0].W.B3.q_wire[6] sky130_fd_sc_hd__dlxtp_1 
XSLICE[0].RAM8x32.WORD[0].W.B3.BIT[6].OBUF 
+ SLICE[0].RAM8x32.WORD[0].W.B3.q_wire[6] SLICE[0].RAM8x32.WORD[0].W.B3.SEL_B 
+ VGND VGND VPWR VPWR SLICE[0].RAM8x32.Do[30] sky130_fd_sc_hd__ebufn_2 
XSLICE[0].RAM8x32.WORD[0].W.B3.BIT[7].LATCH SLICE[0].RAM8x32.Di[31] 
+ SLICE[0].RAM8x32.WORD[0].W.B3.GCLK VGND VGND VPWR VPWR 
+ SLICE[0].RAM8x32.WORD[0].W.B3.q_wire[7] sky130_fd_sc_hd__dlxtp_1 
XSLICE[0].RAM8x32.WORD[0].W.B3.BIT[7].OBUF 
+ SLICE[0].RAM8x32.WORD[0].W.B3.q_wire[7] SLICE[0].RAM8x32.WORD[0].W.B3.SEL_B 
+ VGND VGND VPWR VPWR SLICE[0].RAM8x32.Do[31] sky130_fd_sc_hd__ebufn_2 
XSLICE[0].RAM8x32.WORD[0].W.B3.CG SLICE[0].RAM8x32.WORD[0].W.B3.CLK_B 
+ SLICE[0].RAM8x32.WORD[0].W.B3.we_wire VGND VGND VPWR VPWR 
+ SLICE[0].RAM8x32.WORD[0].W.B3.GCLK sky130_fd_sc_hd__dlclkp_1 
XSLICE[0].RAM8x32.WORD[0].W.B3.CGAND SLICE[0].RAM8x32.WORD[0].W.B0.SEL 
+ SLICE[0].RAM8x32.WORD[0].W.B3.WE VGND VGND VPWR VPWR 
+ SLICE[0].RAM8x32.WORD[0].W.B3.we_wire sky130_fd_sc_hd__and2_1 
XSLICE[0].RAM8x32.WORD[0].W.B3.CLKINV SLICE[0].RAM8x32.WORD[0].W.B0.CLK VGND 
+ VGND VPWR VPWR SLICE[0].RAM8x32.WORD[0].W.B3.CLK_B sky130_fd_sc_hd__inv_1 
XSLICE[0].RAM8x32.WORD[0].W.B3.SELINV SLICE[0].RAM8x32.WORD[0].W.B0.SEL VGND 
+ VGND VPWR VPWR SLICE[0].RAM8x32.WORD[0].W.B3.SEL_B sky130_fd_sc_hd__inv_1 
XSLICE[0].RAM8x32.WORD[0].W.CLKBUF SLICE[0].RAM8x32.CLK_buf VGND VGND VPWR VPWR 
+ SLICE[0].RAM8x32.WORD[0].W.B0.CLK sky130_fd_sc_hd__clkbuf_1 
XSLICE[0].RAM8x32.WORD[0].W.SELBUF SLICE[0].RAM8x32.WORD[0].W.SEL VGND VGND 