*SPEF "IEEE 1481-1998"
*DESIGN "RAM32x32"
*DATE "Mon May 24 21:03:27 2021"
*VENDOR "AUC CSCE Department"
*PROGRAM "SPEF Extractor"
*VERSION "1.0"
*DESIGN_FLOW "PIN_CAP NONE"
*DIVIDER /
*DELIMITER :
*BUS_DELIMITER []
*T_UNIT 1.00000 NS
*C_UNIT 1.00000 PF
*R_UNIT 1.00000 OHM
*L_UNIT 1.00000 HENRY


*NAME_MAP
*0 A[0]
*1 A[1]
*2 A[2]
*3 A[3]
*4 A[4]
*5 CLK
*6 Di[0]
*7 Di[10]
*8 Di[11]
*9 Di[12]
*10 Di[13]
*11 Di[14]
*12 Di[15]
*13 Di[16]
*14 Di[17]
*15 Di[18]
*16 Di[19]
*17 Di[1]
*18 Di[20]
*19 Di[21]
*20 Di[22]
*21 Di[23]
*22 Di[24]
*23 Di[25]
*24 Di[26]
*25 Di[27]
*26 Di[28]
*27 Di[29]
*28 Di[2]
*29 Di[30]
*30 Di[31]
*31 Di[3]
*32 Di[4]
*33 Di[5]
*34 Di[6]
*35 Di[7]
*36 Di[8]
*37 Di[9]
*38 Do[0]
*39 Do[10]
*40 Do[11]
*41 Do[12]
*42 Do[13]
*43 Do[14]
*44 Do[15]
*45 Do[16]
*46 Do[17]
*47 Do[18]
*48 Do[19]
*49 Do[1]
*50 Do[20]
*51 Do[21]
*52 Do[22]
*53 Do[23]
*54 Do[24]
*55 Do[25]
*56 Do[26]
*57 Do[27]
*58 Do[28]
*59 Do[29]
*60 Do[2]
*61 Do[30]
*62 Do[31]
*63 Do[3]
*64 Do[4]
*65 Do[5]
*66 Do[6]
*67 Do[7]
*68 Do[8]
*69 Do[9]
*70 EN
*71 WE[0]
*72 WE[1]
*73 WE[2]
*74 WE[3]
*75 DEC.A\[0\]
*76 DEC.A\[1\]
*77 DEC.EN
*78 SLICE\[0\].RAM8x32.A\[0\]
*79 SLICE\[0\].RAM8x32.A\[1\]
*80 SLICE\[0\].RAM8x32.A\[2\]
*81 SLICE\[0\].RAM8x32.CLK
*82 SLICE\[0\].RAM8x32.CLK_buf
*83 SLICE\[0\].RAM8x32.DEC.A_buf\[0\]
*84 SLICE\[0\].RAM8x32.DEC.A_buf\[1\]
*85 SLICE\[0\].RAM8x32.DEC.A_buf\[2\]
*86 SLICE\[0\].RAM8x32.DEC.EN
*87 SLICE\[0\].RAM8x32.DEC.EN_buf
*88 SLICE\[0\].RAM8x32.Di\[0\]
*89 SLICE\[0\].RAM8x32.Di\[10\]
*90 SLICE\[0\].RAM8x32.Di\[11\]
*91 SLICE\[0\].RAM8x32.Di\[12\]
*92 SLICE\[0\].RAM8x32.Di\[13\]
*93 SLICE\[0\].RAM8x32.Di\[14\]
*94 SLICE\[0\].RAM8x32.Di\[15\]
*95 SLICE\[0\].RAM8x32.Di\[16\]
*96 SLICE\[0\].RAM8x32.Di\[17\]
*97 SLICE\[0\].RAM8x32.Di\[18\]
*98 SLICE\[0\].RAM8x32.Di\[19\]
*99 SLICE\[0\].RAM8x32.Di\[1\]
*100 SLICE\[0\].RAM8x32.Di\[20\]
*101 SLICE\[0\].RAM8x32.Di\[21\]
*102 SLICE\[0\].RAM8x32.Di\[22\]
*103 SLICE\[0\].RAM8x32.Di\[23\]
*104 SLICE\[0\].RAM8x32.Di\[24\]
*105 SLICE\[0\].RAM8x32.Di\[25\]
*106 SLICE\[0\].RAM8x32.Di\[26\]
*107 SLICE\[0\].RAM8x32.Di\[27\]
*108 SLICE\[0\].RAM8x32.Di\[28\]
*109 SLICE\[0\].RAM8x32.Di\[29\]
*110 SLICE\[0\].RAM8x32.Di\[2\]
*111 SLICE\[0\].RAM8x32.Di\[30\]
*112 SLICE\[0\].RAM8x32.Di\[31\]
*113 SLICE\[0\].RAM8x32.Di\[3\]
*114 SLICE\[0\].RAM8x32.Di\[4\]
*115 SLICE\[0\].RAM8x32.Di\[5\]
*116 SLICE\[0\].RAM8x32.Di\[6\]
*117 SLICE\[0\].RAM8x32.Di\[7\]
*118 SLICE\[0\].RAM8x32.Di\[8\]
*119 SLICE\[0\].RAM8x32.Di\[9\]
*120 SLICE\[0\].RAM8x32.Do\[0\]
*121 SLICE\[0\].RAM8x32.Do\[10\]
*122 SLICE\[0\].RAM8x32.Do\[11\]
*123 SLICE\[0\].RAM8x32.Do\[12\]
*124 SLICE\[0\].RAM8x32.Do\[13\]
*125 SLICE\[0\].RAM8x32.Do\[14\]
*126 SLICE\[0\].RAM8x32.Do\[15\]
*127 SLICE\[0\].RAM8x32.Do\[16\]
*128 SLICE\[0\].RAM8x32.Do\[17\]
*129 SLICE\[0\].RAM8x32.Do\[18\]
*130 SLICE\[0\].RAM8x32.Do\[19\]
*131 SLICE\[0\].RAM8x32.Do\[1\]
*132 SLICE\[0\].RAM8x32.Do\[20\]
*133 SLICE\[0\].RAM8x32.Do\[21\]
*134 SLICE\[0\].RAM8x32.Do\[22\]
*135 SLICE\[0\].RAM8x32.Do\[23\]
*136 SLICE\[0\].RAM8x32.Do\[24\]
*137 SLICE\[0\].RAM8x32.Do\[25\]
*138 SLICE\[0\].RAM8x32.Do\[26\]
*139 SLICE\[0\].RAM8x32.Do\[27\]
*140 SLICE\[0\].RAM8x32.Do\[28\]
*141 SLICE\[0\].RAM8x32.Do\[29\]
*142 SLICE\[0\].RAM8x32.Do\[2\]
*143 SLICE\[0\].RAM8x32.Do\[30\]
*144 SLICE\[0\].RAM8x32.Do\[31\]
*145 SLICE\[0\].RAM8x32.Do\[3\]
*146 SLICE\[0\].RAM8x32.Do\[4\]
*147 SLICE\[0\].RAM8x32.Do\[5\]
*148 SLICE\[0\].RAM8x32.Do\[6\]
*149 SLICE\[0\].RAM8x32.Do\[7\]
*150 SLICE\[0\].RAM8x32.Do\[8\]
*151 SLICE\[0\].RAM8x32.Do\[9\]
*152 SLICE\[0\].RAM8x32.WE\[0\]
*153 SLICE\[0\].RAM8x32.WE\[1\]
*154 SLICE\[0\].RAM8x32.WE\[2\]
*155 SLICE\[0\].RAM8x32.WE\[3\]
*156 SLICE\[0\].RAM8x32.WORD\[0\].W.B0.CLK
*157 SLICE\[0\].RAM8x32.WORD\[0\].W.B0.CLK_B
*158 SLICE\[0\].RAM8x32.WORD\[0\].W.B0.GCLK
*159 SLICE\[0\].RAM8x32.WORD\[0\].W.B0.SEL
*160 SLICE\[0\].RAM8x32.WORD\[0\].W.B0.SEL_B
*161 SLICE\[0\].RAM8x32.WORD\[0\].W.B0.WE
*162 SLICE\[0\].RAM8x32.WORD\[0\].W.B0.q_wire\[0\]
*163 SLICE\[0\].RAM8x32.WORD\[0\].W.B0.q_wire\[1\]
*164 SLICE\[0\].RAM8x32.WORD\[0\].W.B0.q_wire\[2\]
*165 SLICE\[0\].RAM8x32.WORD\[0\].W.B0.q_wire\[3\]
*166 SLICE\[0\].RAM8x32.WORD\[0\].W.B0.q_wire\[4\]
*167 SLICE\[0\].RAM8x32.WORD\[0\].W.B0.q_wire\[5\]
*168 SLICE\[0\].RAM8x32.WORD\[0\].W.B0.q_wire\[6\]
*169 SLICE\[0\].RAM8x32.WORD\[0\].W.B0.q_wire\[7\]
*170 SLICE\[0\].RAM8x32.WORD\[0\].W.B0.we_wire
*171 SLICE\[0\].RAM8x32.WORD\[0\].W.B1.CLK_B
*172 SLICE\[0\].RAM8x32.WORD\[0\].W.B1.GCLK
*173 SLICE\[0\].RAM8x32.WORD\[0\].W.B1.SEL_B
*174 SLICE\[0\].RAM8x32.WORD\[0\].W.B1.WE
*175 SLICE\[0\].RAM8x32.WORD\[0\].W.B1.q_wire\[0\]
*176 SLICE\[0\].RAM8x32.WORD\[0\].W.B1.q_wire\[1\]
*177 SLICE\[0\].RAM8x32.WORD\[0\].W.B1.q_wire\[2\]
*178 SLICE\[0\].RAM8x32.WORD\[0\].W.B1.q_wire\[3\]
*179 SLICE\[0\].RAM8x32.WORD\[0\].W.B1.q_wire\[4\]
*180 SLICE\[0\].RAM8x32.WORD\[0\].W.B1.q_wire\[5\]
*181 SLICE\[0\].RAM8x32.WORD\[0\].W.B1.q_wire\[6\]
*182 SLICE\[0\].RAM8x32.WORD\[0\].W.B1.q_wire\[7\]
*183 SLICE\[0\].RAM8x32.WORD\[0\].W.B1.we_wire
*184 SLICE\[0\].RAM8x32.WORD\[0\].W.B2.CLK_B
*185 SLICE\[0\].RAM8x32.WORD\[0\].W.B2.GCLK
*186 SLICE\[0\].RAM8x32.WORD\[0\].W.B2.SEL_B
*187 SLICE\[0\].RAM8x32.WORD\[0\].W.B2.WE
*188 SLICE\[0\].RAM8x32.WORD\[0\].W.B2.q_wire\[0\]
*189 SLICE\[0\].RAM8x32.WORD\[0\].W.B2.q_wire\[1\]
*190 SLICE\[0\].RAM8x32.WORD\[0\].W.B2.q_wire\[2\]
*191 SLICE\[0\].RAM8x32.WORD\[0\].W.B2.q_wire\[3\]
*192 SLICE\[0\].RAM8x32.WORD\[0\].W.B2.q_wire\[4\]
*193 SLICE\[0\].RAM8x32.WORD\[0\].W.B2.q_wire\[5\]
*194 SLICE\[0\].RAM8x32.WORD\[0\].W.B2.q_wire\[6\]
*195 SLICE\[0\].RAM8x32.WORD\[0\].W.B2.q_wire\[7\]
*196 SLICE\[0\].RAM8x32.WORD\[0\].W.B2.we_wire
*197 SLICE\[0\].RAM8x32.WORD\[0\].W.B3.CLK_B
*198 SLICE\[0\].RAM8x32.WORD\[0\].W.B3.GCLK
*199 SLICE\[0\].RAM8x32.WORD\[0\].W.B3.SEL_B
*200 SLICE\[0\].RAM8x32.WORD\[0\].W.B3.WE
*201 SLICE\[0\].RAM8x32.WORD\[0\].W.B3.q_wire\[0\]
*202 SLICE\[0\].RAM8x32.WORD\[0\].W.B3.q_wire\[1\]
*203 SLICE\[0\].RAM8x32.WORD\[0\].W.B3.q_wire\[2\]
*204 SLICE\[0\].RAM8x32.WORD\[0\].W.B3.q_wire\[3\]
*205 SLICE\[0\].RAM8x32.WORD\[0\].W.B3.q_wire\[4\]
*206 SLICE\[0\].RAM8x32.WORD\[0\].W.B3.q_wire\[5\]
*207 SLICE\[0\].RAM8x32.WORD\[0\].W.B3.q_wire\[6\]
*208 SLICE\[0\].RAM8x32.WORD\[0\].W.B3.q_wire\[7\]
*209 SLICE\[0\].RAM8x32.WORD\[0\].W.B3.we_wire
*210 SLICE\[0\].RAM8x32.WORD\[0\].W.SEL
*211 SLICE\[0\].RAM8x32.WORD\[1\].W.B0.CLK
*212 SLICE\[0\].RAM8x32.WORD\[1\].W.B0.CLK_B
*213 SLICE\[0\].RAM8x32.WORD\[1\].W.B0.GCLK
*214 SLICE\[0\].RAM8x32.WORD\[1\].W.B0.SEL
*215 SLICE\[0\].RAM8x32.WORD\[1\].W.B0.SEL_B
*216 SLICE\[0\].RAM8x32.WORD\[1\].W.B0.q_wire\[0\]
*217 SLICE\[0\].RAM8x32.WORD\[1\].W.B0.q_wire\[1\]
*218 SLICE\[0\].RAM8x32.WORD\[1\].W.B0.q_wire\[2\]
*219 SLICE\[0\].RAM8x32.WORD\[1\].W.B0.q_wire\[3\]
*220 SLICE\[0\].RAM8x32.WORD\[1\].W.B0.q_wire\[4\]
*221 SLICE\[0\].RAM8x32.WORD\[1\].W.B0.q_wire\[5\]
*222 SLICE\[0\].RAM8x32.WORD\[1\].W.B0.q_wire\[6\]
*223 SLICE\[0\].RAM8x32.WORD\[1\].W.B0.q_wire\[7\]
*224 SLICE\[0\].RAM8x32.WORD\[1\].W.B0.we_wire
*225 SLICE\[0\].RAM8x32.WORD\[1\].W.B1.CLK_B
*226 SLICE\[0\].RAM8x32.WORD\[1\].W.B1.GCLK
*227 SLICE\[0\].RAM8x32.WORD\[1\].W.B1.SEL_B
*228 SLICE\[0\].RAM8x32.WORD\[1\].W.B1.q_wire\[0\]
*229 SLICE\[0\].RAM8x32.WORD\[1\].W.B1.q_wire\[1\]
*230 SLICE\[0\].RAM8x32.WORD\[1\].W.B1.q_wire\[2\]
*231 SLICE\[0\].RAM8x32.WORD\[1\].W.B1.q_wire\[3\]
*232 SLICE\[0\].RAM8x32.WORD\[1\].W.B1.q_wire\[4\]
*233 SLICE\[0\].RAM8x32.WORD\[1\].W.B1.q_wire\[5\]
*234 SLICE\[0\].RAM8x32.WORD\[1\].W.B1.q_wire\[6\]
*235 SLICE\[0\].RAM8x32.WORD\[1\].W.B1.q_wire\[7\]
*236 SLICE\[0\].RAM8x32.WORD\[1\].W.B1.we_wire
*237 SLICE\[0\].RAM8x32.WORD\[1\].W.B2.CLK_B
*238 SLICE\[0\].RAM8x32.WORD\[1\].W.B2.GCLK
*239 SLICE\[0\].RAM8x32.WORD\[1\].W.B2.SEL_B
*240 SLICE\[0\].RAM8x32.WORD\[1\].W.B2.q_wire\[0\]
*241 SLICE\[0\].RAM8x32.WORD\[1\].W.B2.q_wire\[1\]
*242 SLICE\[0\].RAM8x32.WORD\[1\].W.B2.q_wire\[2\]
*243 SLICE\[0\].RAM8x32.WORD\[1\].W.B2.q_wire\[3\]
*244 SLICE\[0\].RAM8x32.WORD\[1\].W.B2.q_wire\[4\]
*245 SLICE\[0\].RAM8x32.WORD\[1\].W.B2.q_wire\[5\]
*246 SLICE\[0\].RAM8x32.WORD\[1\].W.B2.q_wire\[6\]
*247 SLICE\[0\].RAM8x32.WORD\[1\].W.B2.q_wire\[7\]
*248 SLICE\[0\].RAM8x32.WORD\[1\].W.B2.we_wire
*249 SLICE\[0\].RAM8x32.WORD\[1\].W.B3.CLK_B
*250 SLICE\[0\].RAM8x32.WORD\[1\].W.B3.GCLK
*251 SLICE\[0\].RAM8x32.WORD\[1\].W.B3.SEL_B
*252 SLICE\[0\].RAM8x32.WORD\[1\].W.B3.q_wire\[0\]
*253 SLICE\[0\].RAM8x32.WORD\[1\].W.B3.q_wire\[1\]
*254 SLICE\[0\].RAM8x32.WORD\[1\].W.B3.q_wire\[2\]
*255 SLICE\[0\].RAM8x32.WORD\[1\].W.B3.q_wire\[3\]
*256 SLICE\[0\].RAM8x32.WORD\[1\].W.B3.q_wire\[4\]
*257 SLICE\[0\].RAM8x32.WORD\[1\].W.B3.q_wire\[5\]
*258 SLICE\[0\].RAM8x32.WORD\[1\].W.B3.q_wire\[6\]
*259 SLICE\[0\].RAM8x32.WORD\[1\].W.B3.q_wire\[7\]
*260 SLICE\[0\].RAM8x32.WORD\[1\].W.B3.we_wire
*261 SLICE\[0\].RAM8x32.WORD\[1\].W.SEL
*262 SLICE\[0\].RAM8x32.WORD\[2\].W.B0.CLK
*263 SLICE\[0\].RAM8x32.WORD\[2\].W.B0.CLK_B
*264 SLICE\[0\].RAM8x32.WORD\[2\].W.B0.GCLK
*265 SLICE\[0\].RAM8x32.WORD\[2\].W.B0.SEL
*266 SLICE\[0\].RAM8x32.WORD\[2\].W.B0.SEL_B
*267 SLICE\[0\].RAM8x32.WORD\[2\].W.B0.q_wire\[0\]
*268 SLICE\[0\].RAM8x32.WORD\[2\].W.B0.q_wire\[1\]
*269 SLICE\[0\].RAM8x32.WORD\[2\].W.B0.q_wire\[2\]
*270 SLICE\[0\].RAM8x32.WORD\[2\].W.B0.q_wire\[3\]
*271 SLICE\[0\].RAM8x32.WORD\[2\].W.B0.q_wire\[4\]
*272 SLICE\[0\].RAM8x32.WORD\[2\].W.B0.q_wire\[5\]
*273 SLICE\[0\].RAM8x32.WORD\[2\].W.B0.q_wire\[6\]
*274 SLICE\[0\].RAM8x32.WORD\[2\].W.B0.q_wire\[7\]
*275 SLICE\[0\].RAM8x32.WORD\[2\].W.B0.we_wire
*276 SLICE\[0\].RAM8x32.WORD\[2\].W.B1.CLK_B
*277 SLICE\[0\].RAM8x32.WORD\[2\].W.B1.GCLK
*278 SLICE\[0\].RAM8x32.WORD\[2\].W.B1.SEL_B
*279 SLICE\[0\].RAM8x32.WORD\[2\].W.B1.q_wire\[0\]
*280 SLICE\[0\].RAM8x32.WORD\[2\].W.B1.q_wire\[1\]
*281 SLICE\[0\].RAM8x32.WORD\[2\].W.B1.q_wire\[2\]
*282 SLICE\[0\].RAM8x32.WORD\[2\].W.B1.q_wire\[3\]
*283 SLICE\[0\].RAM8x32.WORD\[2\].W.B1.q_wire\[4\]
*284 SLICE\[0\].RAM8x32.WORD\[2\].W.B1.q_wire\[5\]
*285 SLICE\[0\].RAM8x32.WORD\[2\].W.B1.q_wire\[6\]
*286 SLICE\[0\].RAM8x32.WORD\[2\].W.B1.q_wire\[7\]
*287 SLICE\[0\].RAM8x32.WORD\[2\].W.B1.we_wire
*288 SLICE\[0\].RAM8x32.WORD\[2\].W.B2.CLK_B
*289 SLICE\[0\].RAM8x32.WORD\[2\].W.B2.GCLK
*290 SLICE\[0\].RAM8x32.WORD\[2\].W.B2.SEL_B
*291 SLICE\[0\].RAM8x32.WORD\[2\].W.B2.q_wire\[0\]
*292 SLICE\[0\].RAM8x32.WORD\[2\].W.B2.q_wire\[1\]
*293 SLICE\[0\].RAM8x32.WORD\[2\].W.B2.q_wire\[2\]
*294 SLICE\[0\].RAM8x32.WORD\[2\].W.B2.q_wire\[3\]
*295 SLICE\[0\].RAM8x32.WORD\[2\].W.B2.q_wire\[4\]
*296 SLICE\[0\].RAM8x32.WORD\[2\].W.B2.q_wire\[5\]
*297 SLICE\[0\].RAM8x32.WORD\[2\].W.B2.q_wire\[6\]
*298 SLICE\[0\].RAM8x32.WORD\[2\].W.B2.q_wire\[7\]
*299 SLICE\[0\].RAM8x32.WORD\[2\].W.B2.we_wire
*300 SLICE\[0\].RAM8x32.WORD\[2\].W.B3.CLK_B
*301 SLICE\[0\].RAM8x32.WORD\[2\].W.B3.GCLK
*302 SLICE\[0\].RAM8x32.WORD\[2\].W.B3.SEL_B
*303 SLICE\[0\].RAM8x32.WORD\[2\].W.B3.q_wire\[0\]
*304 SLICE\[0\].RAM8x32.WORD\[2\].W.B3.q_wire\[1\]
*305 SLICE\[0\].RAM8x32.WORD\[2\].W.B3.q_wire\[2\]
*306 SLICE\[0\].RAM8x32.WORD\[2\].W.B3.q_wire\[3\]
*307 SLICE\[0\].RAM8x32.WORD\[2\].W.B3.q_wire\[4\]
*308 SLICE\[0\].RAM8x32.WORD\[2\].W.B3.q_wire\[5\]
*309 SLICE\[0\].RAM8x32.WORD\[2\].W.B3.q_wire\[6\]
*310 SLICE\[0\].RAM8x32.WORD\[2\].W.B3.q_wire\[7\]
*311 SLICE\[0\].RAM8x32.WORD\[2\].W.B3.we_wire
*312 SLICE\[0\].RAM8x32.WORD\[2\].W.SEL
*313 SLICE\[0\].RAM8x32.WORD\[3\].W.B0.CLK
*314 SLICE\[0\].RAM8x32.WORD\[3\].W.B0.CLK_B
*315 SLICE\[0\].RAM8x32.WORD\[3\].W.B0.GCLK
*316 SLICE\[0\].RAM8x32.WORD\[3\].W.B0.SEL
*317 SLICE\[0\].RAM8x32.WORD\[3\].W.B0.SEL_B
*318 SLICE\[0\].RAM8x32.WORD\[3\].W.B0.q_wire\[0\]
*319 SLICE\[0\].RAM8x32.WORD\[3\].W.B0.q_wire\[1\]
*320 SLICE\[0\].RAM8x32.WORD\[3\].W.B0.q_wire\[2\]
*321 SLICE\[0\].RAM8x32.WORD\[3\].W.B0.q_wire\[3\]
*322 SLICE\[0\].RAM8x32.WORD\[3\].W.B0.q_wire\[4\]
*323 SLICE\[0\].RAM8x32.WORD\[3\].W.B0.q_wire\[5\]
*324 SLICE\[0\].RAM8x32.WORD\[3\].W.B0.q_wire\[6\]
*325 SLICE\[0\].RAM8x32.WORD\[3\].W.B0.q_wire\[7\]
*326 SLICE\[0\].RAM8x32.WORD\[3\].W.B0.we_wire
*327 SLICE\[0\].RAM8x32.WORD\[3\].W.B1.CLK_B
*328 SLICE\[0\].RAM8x32.WORD\[3\].W.B1.GCLK
*329 SLICE\[0\].RAM8x32.WORD\[3\].W.B1.SEL_B
*330 SLICE\[0\].RAM8x32.WORD\[3\].W.B1.q_wire\[0\]
*331 SLICE\[0\].RAM8x32.WORD\[3\].W.B1.q_wire\[1\]
*332 SLICE\[0\].RAM8x32.WORD\[3\].W.B1.q_wire\[2\]
*333 SLICE\[0\].RAM8x32.WORD\[3\].W.B1.q_wire\[3\]
*334 SLICE\[0\].RAM8x32.WORD\[3\].W.B1.q_wire\[4\]
*335 SLICE\[0\].RAM8x32.WORD\[3\].W.B1.q_wire\[5\]
*336 SLICE\[0\].RAM8x32.WORD\[3\].W.B1.q_wire\[6\]
*337 SLICE\[0\].RAM8x32.WORD\[3\].W.B1.q_wire\[7\]
*338 SLICE\[0\].RAM8x32.WORD\[3\].W.B1.we_wire
*339 SLICE\[0\].RAM8x32.WORD\[3\].W.B2.CLK_B
*340 SLICE\[0\].RAM8x32.WORD\[3\].W.B2.GCLK
*341 SLICE\[0\].RAM8x32.WORD\[3\].W.B2.SEL_B
*342 SLICE\[0\].RAM8x32.WORD\[3\].W.B2.q_wire\[0\]
*343 SLICE\[0\].RAM8x32.WORD\[3\].W.B2.q_wire\[1\]
*344 SLICE\[0\].RAM8x32.WORD\[3\].W.B2.q_wire\[2\]
*345 SLICE\[0\].RAM8x32.WORD\[3\].W.B2.q_wire\[3\]
*346 SLICE\[0\].RAM8x32.WORD\[3\].W.B2.q_wire\[4\]
*347 SLICE\[0\].RAM8x32.WORD\[3\].W.B2.q_wire\[5\]
*348 SLICE\[0\].RAM8x32.WORD\[3\].W.B2.q_wire\[6\]
*349 SLICE\[0\].RAM8x32.WORD\[3\].W.B2.q_wire\[7\]
*350 SLICE\[0\].RAM8x32.WORD\[3\].W.B2.we_wire
*351 SLICE\[0\].RAM8x32.WORD\[3\].W.B3.CLK_B
*352 SLICE\[0\].RAM8x32.WORD\[3\].W.B3.GCLK
*353 SLICE\[0\].RAM8x32.WORD\[3\].W.B3.SEL_B
*354 SLICE\[0\].RAM8x32.WORD\[3\].W.B3.q_wire\[0\]
*355 SLICE\[0\].RAM8x32.WORD\[3\].W.B3.q_wire\[1\]
*356 SLICE\[0\].RAM8x32.WORD\[3\].W.B3.q_wire\[2\]
*357 SLICE\[0\].RAM8x32.WORD\[3\].W.B3.q_wire\[3\]
*358 SLICE\[0\].RAM8x32.WORD\[3\].W.B3.q_wire\[4\]
*359 SLICE\[0\].RAM8x32.WORD\[3\].W.B3.q_wire\[5\]
*360 SLICE\[0\].RAM8x32.WORD\[3\].W.B3.q_wire\[6\]
*361 SLICE\[0\].RAM8x32.WORD\[3\].W.B3.q_wire\[7\]
*362 SLICE\[0\].RAM8x32.WORD\[3\].W.B3.we_wire
*363 SLICE\[0\].RAM8x32.WORD\[3\].W.SEL
*364 SLICE\[0\].RAM8x32.WORD\[4\].W.B0.CLK
*365 SLICE\[0\].RAM8x32.WORD\[4\].W.B0.CLK_B
*366 SLICE\[0\].RAM8x32.WORD\[4\].W.B0.GCLK
*367 SLICE\[0\].RAM8x32.WORD\[4\].W.B0.SEL
*368 SLICE\[0\].RAM8x32.WORD\[4\].W.B0.SEL_B
*369 SLICE\[0\].RAM8x32.WORD\[4\].W.B0.q_wire\[0\]
*370 SLICE\[0\].RAM8x32.WORD\[4\].W.B0.q_wire\[1\]
*371 SLICE\[0\].RAM8x32.WORD\[4\].W.B0.q_wire\[2\]
*372 SLICE\[0\].RAM8x32.WORD\[4\].W.B0.q_wire\[3\]
*373 SLICE\[0\].RAM8x32.WORD\[4\].W.B0.q_wire\[4\]
*374 SLICE\[0\].RAM8x32.WORD\[4\].W.B0.q_wire\[5\]
*375 SLICE\[0\].RAM8x32.WORD\[4\].W.B0.q_wire\[6\]
*376 SLICE\[0\].RAM8x32.WORD\[4\].W.B0.q_wire\[7\]
*377 SLICE\[0\].RAM8x32.WORD\[4\].W.B0.we_wire
*378 SLICE\[0\].RAM8x32.WORD\[4\].W.B1.CLK_B
*379 SLICE\[0\].RAM8x32.WORD\[4\].W.B1.GCLK
*380 SLICE\[0\].RAM8x32.WORD\[4\].W.B1.SEL_B
*381 SLICE\[0\].RAM8x32.WORD\[4\].W.B1.q_wire\[0\]
*382 SLICE\[0\].RAM8x32.WORD\[4\].W.B1.q_wire\[1\]
*383 SLICE\[0\].RAM8x32.WORD\[4\].W.B1.q_wire\[2\]
*384 SLICE\[0\].RAM8x32.WORD\[4\].W.B1.q_wire\[3\]
*385 SLICE\[0\].RAM8x32.WORD\[4\].W.B1.q_wire\[4\]
*386 SLICE\[0\].RAM8x32.WORD\[4\].W.B1.q_wire\[5\]
*387 SLICE\[0\].RAM8x32.WORD\[4\].W.B1.q_wire\[6\]
*388 SLICE\[0\].RAM8x32.WORD\[4\].W.B1.q_wire\[7\]
*389 SLICE\[0\].RAM8x32.WORD\[4\].W.B1.we_wire
*390 SLICE\[0\].RAM8x32.WORD\[4\].W.B2.CLK_B
*391 SLICE\[0\].RAM8x32.WORD\[4\].W.B2.GCLK
*392 SLICE\[0\].RAM8x32.WORD\[4\].W.B2.SEL_B
*393 SLICE\[0\].RAM8x32.WORD\[4\].W.B2.q_wire\[0\]
*394 SLICE\[0\].RAM8x32.WORD\[4\].W.B2.q_wire\[1\]
*395 SLICE\[0\].RAM8x32.WORD\[4\].W.B2.q_wire\[2\]
*396 SLICE\[0\].RAM8x32.WORD\[4\].W.B2.q_wire\[3\]
*397 SLICE\[0\].RAM8x32.WORD\[4\].W.B2.q_wire\[4\]
*398 SLICE\[0\].RAM8x32.WORD\[4\].W.B2.q_wire\[5\]
*399 SLICE\[0\].RAM8x32.WORD\[4\].W.B2.q_wire\[6\]
*400 SLICE\[0\].RAM8x32.WORD\[4\].W.B2.q_wire\[7\]
*401 SLICE\[0\].RAM8x32.WORD\[4\].W.B2.we_wire
*402 SLICE\[0\].RAM8x32.WORD\[4\].W.B3.CLK_B
*403 SLICE\[0\].RAM8x32.WORD\[4\].W.B3.GCLK
*404 SLICE\[0\].RAM8x32.WORD\[4\].W.B3.SEL_B
*405 SLICE\[0\].RAM8x32.WORD\[4\].W.B3.q_wire\[0\]
*406 SLICE\[0\].RAM8x32.WORD\[4\].W.B3.q_wire\[1\]
*407 SLICE\[0\].RAM8x32.WORD\[4\].W.B3.q_wire\[2\]
*408 SLICE\[0\].RAM8x32.WORD\[4\].W.B3.q_wire\[3\]
*409 SLICE\[0\].RAM8x32.WORD\[4\].W.B3.q_wire\[4\]
*410 SLICE\[0\].RAM8x32.WORD\[4\].W.B3.q_wire\[5\]
*411 SLICE\[0\].RAM8x32.WORD\[4\].W.B3.q_wire\[6\]
*412 SLICE\[0\].RAM8x32.WORD\[4\].W.B3.q_wire\[7\]
*413 SLICE\[0\].RAM8x32.WORD\[4\].W.B3.we_wire
*414 SLICE\[0\].RAM8x32.WORD\[4\].W.SEL
*415 SLICE\[0\].RAM8x32.WORD\[5\].W.B0.CLK
*416 SLICE\[0\].RAM8x32.WORD\[5\].W.B0.CLK_B
*417 SLICE\[0\].RAM8x32.WORD\[5\].W.B0.GCLK
*418 SLICE\[0\].RAM8x32.WORD\[5\].W.B0.SEL
*419 SLICE\[0\].RAM8x32.WORD\[5\].W.B0.SEL_B
*420 SLICE\[0\].RAM8x32.WORD\[5\].W.B0.q_wire\[0\]
*421 SLICE\[0\].RAM8x32.WORD\[5\].W.B0.q_wire\[1\]
*422 SLICE\[0\].RAM8x32.WORD\[5\].W.B0.q_wire\[2\]
*423 SLICE\[0\].RAM8x32.WORD\[5\].W.B0.q_wire\[3\]
*424 SLICE\[0\].RAM8x32.WORD\[5\].W.B0.q_wire\[4\]
*425 SLICE\[0\].RAM8x32.WORD\[5\].W.B0.q_wire\[5\]
*426 SLICE\[0\].RAM8x32.WORD\[5\].W.B0.q_wire\[6\]
*427 SLICE\[0\].RAM8x32.WORD\[5\].W.B0.q_wire\[7\]
*428 SLICE\[0\].RAM8x32.WORD\[5\].W.B0.we_wire
*429 SLICE\[0\].RAM8x32.WORD\[5\].W.B1.CLK_B
*430 SLICE\[0\].RAM8x32.WORD\[5\].W.B1.GCLK
*431 SLICE\[0\].RAM8x32.WORD\[5\].W.B1.SEL_B
*432 SLICE\[0\].RAM8x32.WORD\[5\].W.B1.q_wire\[0\]
*433 SLICE\[0\].RAM8x32.WORD\[5\].W.B1.q_wire\[1\]
*434 SLICE\[0\].RAM8x32.WORD\[5\].W.B1.q_wire\[2\]
*435 SLICE\[0\].RAM8x32.WORD\[5\].W.B1.q_wire\[3\]
*436 SLICE\[0\].RAM8x32.WORD\[5\].W.B1.q_wire\[4\]
*437 SLICE\[0\].RAM8x32.WORD\[5\].W.B1.q_wire\[5\]
*438 SLICE\[0\].RAM8x32.WORD\[5\].W.B1.q_wire\[6\]
*439 SLICE\[0\].RAM8x32.WORD\[5\].W.B1.q_wire\[7\]
*440 SLICE\[0\].RAM8x32.WORD\[5\].W.B1.we_wire
*441 SLICE\[0\].RAM8x32.WORD\[5\].W.B2.CLK_B
*442 SLICE\[0\].RAM8x32.WORD\[5\].W.B2.GCLK
*443 SLICE\[0\].RAM8x32.WORD\[5\].W.B2.SEL_B
*444 SLICE\[0\].RAM8x32.WORD\[5\].W.B2.q_wire\[0\]
*445 SLICE\[0\].RAM8x32.WORD\[5\].W.B2.q_wire\[1\]
*446 SLICE\[0\].RAM8x32.WORD\[5\].W.B2.q_wire\[2\]
*447 SLICE\[0\].RAM8x32.WORD\[5\].W.B2.q_wire\[3\]
*448 SLICE\[0\].RAM8x32.WORD\[5\].W.B2.q_wire\[4\]
*449 SLICE\[0\].RAM8x32.WORD\[5\].W.B2.q_wire\[5\]
*450 SLICE\[0\].RAM8x32.WORD\[5\].W.B2.q_wire\[6\]
*451 SLICE\[0\].RAM8x32.WORD\[5\].W.B2.q_wire\[7\]
*452 SLICE\[0\].RAM8x32.WORD\[5\].W.B2.we_wire
*453 SLICE\[0\].RAM8x32.WORD\[5\].W.B3.CLK_B
*454 SLICE\[0\].RAM8x32.WORD\[5\].W.B3.GCLK
*455 SLICE\[0\].RAM8x32.WORD\[5\].W.B3.SEL_B
*456 SLICE\[0\].RAM8x32.WORD\[5\].W.B3.q_wire\[0\]
*457 SLICE\[0\].RAM8x32.WORD\[5\].W.B3.q_wire\[1\]
*458 SLICE\[0\].RAM8x32.WORD\[5\].W.B3.q_wire\[2\]
*459 SLICE\[0\].RAM8x32.WORD\[5\].W.B3.q_wire\[3\]
*460 SLICE\[0\].RAM8x32.WORD\[5\].W.B3.q_wire\[4\]
*461 SLICE\[0\].RAM8x32.WORD\[5\].W.B3.q_wire\[5\]
*462 SLICE\[0\].RAM8x32.WORD\[5\].W.B3.q_wire\[6\]
*463 SLICE\[0\].RAM8x32.WORD\[5\].W.B3.q_wire\[7\]
*464 SLICE\[0\].RAM8x32.WORD\[5\].W.B3.we_wire
*465 SLICE\[0\].RAM8x32.WORD\[5\].W.SEL
*466 SLICE\[0\].RAM8x32.WORD\[6\].W.B0.CLK
*467 SLICE\[0\].RAM8x32.WORD\[6\].W.B0.CLK_B
*468 SLICE\[0\].RAM8x32.WORD\[6\].W.B0.GCLK
*469 SLICE\[0\].RAM8x32.WORD\[6\].W.B0.SEL
*470 SLICE\[0\].RAM8x32.WORD\[6\].W.B0.SEL_B
*471 SLICE\[0\].RAM8x32.WORD\[6\].W.B0.q_wire\[0\]
*472 SLICE\[0\].RAM8x32.WORD\[6\].W.B0.q_wire\[1\]
*473 SLICE\[0\].RAM8x32.WORD\[6\].W.B0.q_wire\[2\]
*474 SLICE\[0\].RAM8x32.WORD\[6\].W.B0.q_wire\[3\]
*475 SLICE\[0\].RAM8x32.WORD\[6\].W.B0.q_wire\[4\]
*476 SLICE\[0\].RAM8x32.WORD\[6\].W.B0.q_wire\[5\]
*477 SLICE\[0\].RAM8x32.WORD\[6\].W.B0.q_wire\[6\]
*478 SLICE\[0\].RAM8x32.WORD\[6\].W.B0.q_wire\[7\]
*479 SLICE\[0\].RAM8x32.WORD\[6\].W.B0.we_wire
*480 SLICE\[0\].RAM8x32.WORD\[6\].W.B1.CLK_B
*481 SLICE\[0\].RAM8x32.WORD\[6\].W.B1.GCLK
*482 SLICE\[0\].RAM8x32.WORD\[6\].W.B1.SEL_B
*483 SLICE\[0\].RAM8x32.WORD\[6\].W.B1.q_wire\[0\]
*484 SLICE\[0\].RAM8x32.WORD\[6\].W.B1.q_wire\[1\]
*485 SLICE\[0\].RAM8x32.WORD\[6\].W.B1.q_wire\[2\]
*486 SLICE\[0\].RAM8x32.WORD\[6\].W.B1.q_wire\[3\]
*487 SLICE\[0\].RAM8x32.WORD\[6\].W.B1.q_wire\[4\]
*488 SLICE\[0\].RAM8x32.WORD\[6\].W.B1.q_wire\[5\]
*489 SLICE\[0\].RAM8x32.WORD\[6\].W.B1.q_wire\[6\]
*490 SLICE\[0\].RAM8x32.WORD\[6\].W.B1.q_wire\[7\]
*491 SLICE\[0\].RAM8x32.WORD\[6\].W.B1.we_wire
*492 SLICE\[0\].RAM8x32.WORD\[6\].W.B2.CLK_B
*493 SLICE\[0\].RAM8x32.WORD\[6\].W.B2.GCLK
*494 SLICE\[0\].RAM8x32.WORD\[6\].W.B2.SEL_B
*495 SLICE\[0\].RAM8x32.WORD\[6\].W.B2.q_wire\[0\]
*496 SLICE\[0\].RAM8x32.WORD\[6\].W.B2.q_wire\[1\]
*497 SLICE\[0\].RAM8x32.WORD\[6\].W.B2.q_wire\[2\]
*498 SLICE\[0\].RAM8x32.WORD\[6\].W.B2.q_wire\[3\]
*499 SLICE\[0\].RAM8x32.WORD\[6\].W.B2.q_wire\[4\]
*500 SLICE\[0\].RAM8x32.WORD\[6\].W.B2.q_wire\[5\]
*501 SLICE\[0\].RAM8x32.WORD\[6\].W.B2.q_wire\[6\]
*502 SLICE\[0\].RAM8x32.WORD\[6\].W.B2.q_wire\[7\]
*503 SLICE\[0\].RAM8x32.WORD\[6\].W.B2.we_wire
*504 SLICE\[0\].RAM8x32.WORD\[6\].W.B3.CLK_B
*505 SLICE\[0\].RAM8x32.WORD\[6\].W.B3.GCLK
*506 SLICE\[0\].RAM8x32.WORD\[6\].W.B3.SEL_B
*507 SLICE\[0\].RAM8x32.WORD\[6\].W.B3.q_wire\[0\]
*508 SLICE\[0\].RAM8x32.WORD\[6\].W.B3.q_wire\[1\]
*509 SLICE\[0\].RAM8x32.WORD\[6\].W.B3.q_wire\[2\]
*510 SLICE\[0\].RAM8x32.WORD\[6\].W.B3.q_wire\[3\]
*511 SLICE\[0\].RAM8x32.WORD\[6\].W.B3.q_wire\[4\]
*512 SLICE\[0\].RAM8x32.WORD\[6\].W.B3.q_wire\[5\]
*513 SLICE\[0\].RAM8x32.WORD\[6\].W.B3.q_wire\[6\]
*514 SLICE\[0\].RAM8x32.WORD\[6\].W.B3.q_wire\[7\]
*515 SLICE\[0\].RAM8x32.WORD\[6\].W.B3.we_wire
*516 SLICE\[0\].RAM8x32.WORD\[6\].W.SEL
*517 SLICE\[0\].RAM8x32.WORD\[7\].W.B0.CLK
*518 SLICE\[0\].RAM8x32.WORD\[7\].W.B0.CLK_B
*519 SLICE\[0\].RAM8x32.WORD\[7\].W.B0.GCLK
*520 SLICE\[0\].RAM8x32.WORD\[7\].W.B0.SEL
*521 SLICE\[0\].RAM8x32.WORD\[7\].W.B0.SEL_B
*522 SLICE\[0\].RAM8x32.WORD\[7\].W.B0.q_wire\[0\]
*523 SLICE\[0\].RAM8x32.WORD\[7\].W.B0.q_wire\[1\]
*524 SLICE\[0\].RAM8x32.WORD\[7\].W.B0.q_wire\[2\]
*525 SLICE\[0\].RAM8x32.WORD\[7\].W.B0.q_wire\[3\]
*526 SLICE\[0\].RAM8x32.WORD\[7\].W.B0.q_wire\[4\]
*527 SLICE\[0\].RAM8x32.WORD\[7\].W.B0.q_wire\[5\]
*528 SLICE\[0\].RAM8x32.WORD\[7\].W.B0.q_wire\[6\]
*529 SLICE\[0\].RAM8x32.WORD\[7\].W.B0.q_wire\[7\]
*530 SLICE\[0\].RAM8x32.WORD\[7\].W.B0.we_wire
*531 SLICE\[0\].RAM8x32.WORD\[7\].W.B1.CLK_B
*532 SLICE\[0\].RAM8x32.WORD\[7\].W.B1.GCLK
*533 SLICE\[0\].RAM8x32.WORD\[7\].W.B1.SEL_B
*534 SLICE\[0\].RAM8x32.WORD\[7\].W.B1.q_wire\[0\]
*535 SLICE\[0\].RAM8x32.WORD\[7\].W.B1.q_wire\[1\]
*536 SLICE\[0\].RAM8x32.WORD\[7\].W.B1.q_wire\[2\]
*537 SLICE\[0\].RAM8x32.WORD\[7\].W.B1.q_wire\[3\]
*538 SLICE\[0\].RAM8x32.WORD\[7\].W.B1.q_wire\[4\]
*539 SLICE\[0\].RAM8x32.WORD\[7\].W.B1.q_wire\[5\]
*540 SLICE\[0\].RAM8x32.WORD\[7\].W.B1.q_wire\[6\]
*541 SLICE\[0\].RAM8x32.WORD\[7\].W.B1.q_wire\[7\]
*542 SLICE\[0\].RAM8x32.WORD\[7\].W.B1.we_wire
*543 SLICE\[0\].RAM8x32.WORD\[7\].W.B2.CLK_B
*544 SLICE\[0\].RAM8x32.WORD\[7\].W.B2.GCLK
*545 SLICE\[0\].RAM8x32.WORD\[7\].W.B2.SEL_B
*546 SLICE\[0\].RAM8x32.WORD\[7\].W.B2.q_wire\[0\]
*547 SLICE\[0\].RAM8x32.WORD\[7\].W.B2.q_wire\[1\]
*548 SLICE\[0\].RAM8x32.WORD\[7\].W.B2.q_wire\[2\]
*549 SLICE\[0\].RAM8x32.WORD\[7\].W.B2.q_wire\[3\]
*550 SLICE\[0\].RAM8x32.WORD\[7\].W.B2.q_wire\[4\]
*551 SLICE\[0\].RAM8x32.WORD\[7\].W.B2.q_wire\[5\]
*552 SLICE\[0\].RAM8x32.WORD\[7\].W.B2.q_wire\[6\]
*553 SLICE\[0\].RAM8x32.WORD\[7\].W.B2.q_wire\[7\]
*554 SLICE\[0\].RAM8x32.WORD\[7\].W.B2.we_wire
*555 SLICE\[0\].RAM8x32.WORD\[7\].W.B3.CLK_B
*556 SLICE\[0\].RAM8x32.WORD\[7\].W.B3.GCLK
*557 SLICE\[0\].RAM8x32.WORD\[7\].W.B3.SEL_B
*558 SLICE\[0\].RAM8x32.WORD\[7\].W.B3.q_wire\[0\]
*559 SLICE\[0\].RAM8x32.WORD\[7\].W.B3.q_wire\[1\]
*560 SLICE\[0\].RAM8x32.WORD\[7\].W.B3.q_wire\[2\]
*561 SLICE\[0\].RAM8x32.WORD\[7\].W.B3.q_wire\[3\]
*562 SLICE\[0\].RAM8x32.WORD\[7\].W.B3.q_wire\[4\]
*563 SLICE\[0\].RAM8x32.WORD\[7\].W.B3.q_wire\[5\]
*564 SLICE\[0\].RAM8x32.WORD\[7\].W.B3.q_wire\[6\]
*565 SLICE\[0\].RAM8x32.WORD\[7\].W.B3.q_wire\[7\]
*566 SLICE\[0\].RAM8x32.WORD\[7\].W.B3.we_wire
*567 SLICE\[0\].RAM8x32.WORD\[7\].W.SEL
*568 SLICE\[1\].RAM8x32.CLK_buf
*569 SLICE\[1\].RAM8x32.DEC.A_buf\[0\]
*570 SLICE\[1\].RAM8x32.DEC.A_buf\[1\]
*571 SLICE\[1\].RAM8x32.DEC.A_buf\[2\]
*572 SLICE\[1\].RAM8x32.DEC.EN
*573 SLICE\[1\].RAM8x32.DEC.EN_buf
*574 SLICE\[1\].RAM8x32.WORD\[0\].W.B0.CLK
*575 SLICE\[1\].RAM8x32.WORD\[0\].W.B0.CLK_B
*576 SLICE\[1\].RAM8x32.WORD\[0\].W.B0.GCLK
*577 SLICE\[1\].RAM8x32.WORD\[0\].W.B0.SEL
*578 SLICE\[1\].RAM8x32.WORD\[0\].W.B0.SEL_B
*579 SLICE\[1\].RAM8x32.WORD\[0\].W.B0.WE
*580 SLICE\[1\].RAM8x32.WORD\[0\].W.B0.q_wire\[0\]
*581 SLICE\[1\].RAM8x32.WORD\[0\].W.B0.q_wire\[1\]
*582 SLICE\[1\].RAM8x32.WORD\[0\].W.B0.q_wire\[2\]
*583 SLICE\[1\].RAM8x32.WORD\[0\].W.B0.q_wire\[3\]
*584 SLICE\[1\].RAM8x32.WORD\[0\].W.B0.q_wire\[4\]
*585 SLICE\[1\].RAM8x32.WORD\[0\].W.B0.q_wire\[5\]
*586 SLICE\[1\].RAM8x32.WORD\[0\].W.B0.q_wire\[6\]
*587 SLICE\[1\].RAM8x32.WORD\[0\].W.B0.q_wire\[7\]
*588 SLICE\[1\].RAM8x32.WORD\[0\].W.B0.we_wire
*589 SLICE\[1\].RAM8x32.WORD\[0\].W.B1.CLK_B
*590 SLICE\[1\].RAM8x32.WORD\[0\].W.B1.GCLK
*591 SLICE\[1\].RAM8x32.WORD\[0\].W.B1.SEL_B
*592 SLICE\[1\].RAM8x32.WORD\[0\].W.B1.WE
*593 SLICE\[1\].RAM8x32.WORD\[0\].W.B1.q_wire\[0\]
*594 SLICE\[1\].RAM8x32.WORD\[0\].W.B1.q_wire\[1\]
*595 SLICE\[1\].RAM8x32.WORD\[0\].W.B1.q_wire\[2\]
*596 SLICE\[1\].RAM8x32.WORD\[0\].W.B1.q_wire\[3\]
*597 SLICE\[1\].RAM8x32.WORD\[0\].W.B1.q_wire\[4\]
*598 SLICE\[1\].RAM8x32.WORD\[0\].W.B1.q_wire\[5\]
*599 SLICE\[1\].RAM8x32.WORD\[0\].W.B1.q_wire\[6\]
*600 SLICE\[1\].RAM8x32.WORD\[0\].W.B1.q_wire\[7\]
*601 SLICE\[1\].RAM8x32.WORD\[0\].W.B1.we_wire
*602 SLICE\[1\].RAM8x32.WORD\[0\].W.B2.CLK_B
*603 SLICE\[1\].RAM8x32.WORD\[0\].W.B2.GCLK
*604 SLICE\[1\].RAM8x32.WORD\[0\].W.B2.SEL_B
*605 SLICE\[1\].RAM8x32.WORD\[0\].W.B2.WE
*606 SLICE\[1\].RAM8x32.WORD\[0\].W.B2.q_wire\[0\]
*607 SLICE\[1\].RAM8x32.WORD\[0\].W.B2.q_wire\[1\]
*608 SLICE\[1\].RAM8x32.WORD\[0\].W.B2.q_wire\[2\]
*609 SLICE\[1\].RAM8x32.WORD\[0\].W.B2.q_wire\[3\]
*610 SLICE\[1\].RAM8x32.WORD\[0\].W.B2.q_wire\[4\]
*611 SLICE\[1\].RAM8x32.WORD\[0\].W.B2.q_wire\[5\]
*612 SLICE\[1\].RAM8x32.WORD\[0\].W.B2.q_wire\[6\]
*613 SLICE\[1\].RAM8x32.WORD\[0\].W.B2.q_wire\[7\]
*614 SLICE\[1\].RAM8x32.WORD\[0\].W.B2.we_wire
*615 SLICE\[1\].RAM8x32.WORD\[0\].W.B3.CLK_B
*616 SLICE\[1\].RAM8x32.WORD\[0\].W.B3.GCLK
*617 SLICE\[1\].RAM8x32.WORD\[0\].W.B3.SEL_B
*618 SLICE\[1\].RAM8x32.WORD\[0\].W.B3.WE
*619 SLICE\[1\].RAM8x32.WORD\[0\].W.B3.q_wire\[0\]
*620 SLICE\[1\].RAM8x32.WORD\[0\].W.B3.q_wire\[1\]
*621 SLICE\[1\].RAM8x32.WORD\[0\].W.B3.q_wire\[2\]
*622 SLICE\[1\].RAM8x32.WORD\[0\].W.B3.q_wire\[3\]
*623 SLICE\[1\].RAM8x32.WORD\[0\].W.B3.q_wire\[4\]
*624 SLICE\[1\].RAM8x32.WORD\[0\].W.B3.q_wire\[5\]
*625 SLICE\[1\].RAM8x32.WORD\[0\].W.B3.q_wire\[6\]
*626 SLICE\[1\].RAM8x32.WORD\[0\].W.B3.q_wire\[7\]
*627 SLICE\[1\].RAM8x32.WORD\[0\].W.B3.we_wire
*628 SLICE\[1\].RAM8x32.WORD\[0\].W.SEL
*629 SLICE\[1\].RAM8x32.WORD\[1\].W.B0.CLK
*630 SLICE\[1\].RAM8x32.WORD\[1\].W.B0.CLK_B
*631 SLICE\[1\].RAM8x32.WORD\[1\].W.B0.GCLK
*632 SLICE\[1\].RAM8x32.WORD\[1\].W.B0.SEL
*633 SLICE\[1\].RAM8x32.WORD\[1\].W.B0.SEL_B
*634 SLICE\[1\].RAM8x32.WORD\[1\].W.B0.q_wire\[0\]
*635 SLICE\[1\].RAM8x32.WORD\[1\].W.B0.q_wire\[1\]
*636 SLICE\[1\].RAM8x32.WORD\[1\].W.B0.q_wire\[2\]
*637 SLICE\[1\].RAM8x32.WORD\[1\].W.B0.q_wire\[3\]
*638 SLICE\[1\].RAM8x32.WORD\[1\].W.B0.q_wire\[4\]
*639 SLICE\[1\].RAM8x32.WORD\[1\].W.B0.q_wire\[5\]
*640 SLICE\[1\].RAM8x32.WORD\[1\].W.B0.q_wire\[6\]
*641 SLICE\[1\].RAM8x32.WORD\[1\].W.B0.q_wire\[7\]
*642 SLICE\[1\].RAM8x32.WORD\[1\].W.B0.we_wire
*643 SLICE\[1\].RAM8x32.WORD\[1\].W.B1.CLK_B
*644 SLICE\[1\].RAM8x32.WORD\[1\].W.B1.GCLK
*645 SLICE\[1\].RAM8x32.WORD\[1\].W.B1.SEL_B
*646 SLICE\[1\].RAM8x32.WORD\[1\].W.B1.q_wire\[0\]
*647 SLICE\[1\].RAM8x32.WORD\[1\].W.B1.q_wire\[1\]
*648 SLICE\[1\].RAM8x32.WORD\[1\].W.B1.q_wire\[2\]
*649 SLICE\[1\].RAM8x32.WORD\[1\].W.B1.q_wire\[3\]
*650 SLICE\[1\].RAM8x32.WORD\[1\].W.B1.q_wire\[4\]
*651 SLICE\[1\].RAM8x32.WORD\[1\].W.B1.q_wire\[5\]
*652 SLICE\[1\].RAM8x32.WORD\[1\].W.B1.q_wire\[6\]
*653 SLICE\[1\].RAM8x32.WORD\[1\].W.B1.q_wire\[7\]
*654 SLICE\[1\].RAM8x32.WORD\[1\].W.B1.we_wire
*655 SLICE\[1\].RAM8x32.WORD\[1\].W.B2.CLK_B
*656 SLICE\[1\].RAM8x32.WORD\[1\].W.B2.GCLK
*657 SLICE\[1\].RAM8x32.WORD\[1\].W.B2.SEL_B
*658 SLICE\[1\].RAM8x32.WORD\[1\].W.B2.q_wire\[0\]
*659 SLICE\[1\].RAM8x32.WORD\[1\].W.B2.q_wire\[1\]
*660 SLICE\[1\].RAM8x32.WORD\[1\].W.B2.q_wire\[2\]
*661 SLICE\[1\].RAM8x32.WORD\[1\].W.B2.q_wire\[3\]
*662 SLICE\[1\].RAM8x32.WORD\[1\].W.B2.q_wire\[4\]
*663 SLICE\[1\].RAM8x32.WORD\[1\].W.B2.q_wire\[5\]
*664 SLICE\[1\].RAM8x32.WORD\[1\].W.B2.q_wire\[6\]
*665 SLICE\[1\].RAM8x32.WORD\[1\].W.B2.q_wire\[7\]
*666 SLICE\[1\].RAM8x32.WORD\[1\].W.B2.we_wire
*667 SLICE\[1\].RAM8x32.WORD\[1\].W.B3.CLK_B
*668 SLICE\[1\].RAM8x32.WORD\[1\].W.B3.GCLK
*669 SLICE\[1\].RAM8x32.WORD\[1\].W.B3.SEL_B
*670 SLICE\[1\].RAM8x32.WORD\[1\].W.B3.q_wire\[0\]
*671 SLICE\[1\].RAM8x32.WORD\[1\].W.B3.q_wire\[1\]
*672 SLICE\[1\].RAM8x32.WORD\[1\].W.B3.q_wire\[2\]
*673 SLICE\[1\].RAM8x32.WORD\[1\].W.B3.q_wire\[3\]
*674 SLICE\[1\].RAM8x32.WORD\[1\].W.B3.q_wire\[4\]
*675 SLICE\[1\].RAM8x32.WORD\[1\].W.B3.q_wire\[5\]
*676 SLICE\[1\].RAM8x32.WORD\[1\].W.B3.q_wire\[6\]
*677 SLICE\[1\].RAM8x32.WORD\[1\].W.B3.q_wire\[7\]
*678 SLICE\[1\].RAM8x32.WORD\[1\].W.B3.we_wire
*679 SLICE\[1\].RAM8x32.WORD\[1\].W.SEL
*680 SLICE\[1\].RAM8x32.WORD\[2\].W.B0.CLK
*681 SLICE\[1\].RAM8x32.WORD\[2\].W.B0.CLK_B
*682 SLICE\[1\].RAM8x32.WORD\[2\].W.B0.GCLK
*683 SLICE\[1\].RAM8x32.WORD\[2\].W.B0.SEL
*684 SLICE\[1\].RAM8x32.WORD\[2\].W.B0.SEL_B
*685 SLICE\[1\].RAM8x32.WORD\[2\].W.B0.q_wire\[0\]
*686 SLICE\[1\].RAM8x32.WORD\[2\].W.B0.q_wire\[1\]
*687 SLICE\[1\].RAM8x32.WORD\[2\].W.B0.q_wire\[2\]
*688 SLICE\[1\].RAM8x32.WORD\[2\].W.B0.q_wire\[3\]
*689 SLICE\[1\].RAM8x32.WORD\[2\].W.B0.q_wire\[4\]
*690 SLICE\[1\].RAM8x32.WORD\[2\].W.B0.q_wire\[5\]
*691 SLICE\[1\].RAM8x32.WORD\[2\].W.B0.q_wire\[6\]
*692 SLICE\[1\].RAM8x32.WORD\[2\].W.B0.q_wire\[7\]
*693 SLICE\[1\].RAM8x32.WORD\[2\].W.B0.we_wire
*694 SLICE\[1\].RAM8x32.WORD\[2\].W.B1.CLK_B
*695 SLICE\[1\].RAM8x32.WORD\[2\].W.B1.GCLK
*696 SLICE\[1\].RAM8x32.WORD\[2\].W.B1.SEL_B
*697 SLICE\[1\].RAM8x32.WORD\[2\].W.B1.q_wire\[0\]
*698 SLICE\[1\].RAM8x32.WORD\[2\].W.B1.q_wire\[1\]
*699 SLICE\[1\].RAM8x32.WORD\[2\].W.B1.q_wire\[2\]