*SPEF "IEEE 1481-1998"
*DESIGN "RAM8x32"
*DATE "Mon May 24 20:58:06 2021"
*VENDOR "AUC CSCE Department"
*PROGRAM "SPEF Extractor"
*VERSION "1.0"
*DESIGN_FLOW "PIN_CAP NONE"
*DIVIDER /
*DELIMITER :
*BUS_DELIMITER []
*T_UNIT 1.00000 NS
*C_UNIT 1.00000 PF
*R_UNIT 1.00000 OHM
*L_UNIT 1.00000 HENRY


*NAME_MAP
*0 A[0]
*1 A[1]
*2 A[2]
*3 CLK
*4 Di[0]
*5 Di[10]
*6 Di[11]
*7 Di[12]
*8 Di[13]
*9 Di[14]
*10 Di[15]
*11 Di[16]
*12 Di[17]
*13 Di[18]
*14 Di[19]
*15 Di[1]
*16 Di[20]
*17 Di[21]
*18 Di[22]
*19 Di[23]
*20 Di[24]
*21 Di[25]
*22 Di[26]
*23 Di[27]
*24 Di[28]
*25 Di[29]
*26 Di[2]
*27 Di[30]
*28 Di[31]
*29 Di[3]
*30 Di[4]
*31 Di[5]
*32 Di[6]
*33 Di[7]
*34 Di[8]
*35 Di[9]
*36 Do[0]
*37 Do[10]
*38 Do[11]
*39 Do[12]
*40 Do[13]
*41 Do[14]
*42 Do[15]
*43 Do[16]
*44 Do[17]
*45 Do[18]
*46 Do[19]
*47 Do[1]
*48 Do[20]
*49 Do[21]
*50 Do[22]
*51 Do[23]
*52 Do[24]
*53 Do[25]
*54 Do[26]
*55 Do[27]
*56 Do[28]
*57 Do[29]
*58 Do[2]
*59 Do[30]
*60 Do[31]
*61 Do[3]
*62 Do[4]
*63 Do[5]
*64 Do[6]
*65 Do[7]
*66 Do[8]
*67 Do[9]
*68 EN
*69 WE[0]
*70 WE[1]
*71 WE[2]
*72 WE[3]
*73 DEC.A_buf\[0\]
*74 DEC.A_buf\[1\]
*75 DEC.A_buf\[2\]
*76 DEC.EN_buf
*77 WORD\[0\].W.B0.CLK
*78 WORD\[0\].W.B0.CLK_B
*79 WORD\[0\].W.B0.GCLK
*80 WORD\[0\].W.B0.SEL
*81 WORD\[0\].W.B0.SEL_B
*82 WORD\[0\].W.B0.WE
*83 WORD\[0\].W.B0.q_wire\[0\]
*84 WORD\[0\].W.B0.q_wire\[1\]
*85 WORD\[0\].W.B0.q_wire\[2\]
*86 WORD\[0\].W.B0.q_wire\[3\]
*87 WORD\[0\].W.B0.q_wire\[4\]
*88 WORD\[0\].W.B0.q_wire\[5\]
*89 WORD\[0\].W.B0.q_wire\[6\]
*90 WORD\[0\].W.B0.q_wire\[7\]
*91 WORD\[0\].W.B0.we_wire
*92 WORD\[0\].W.B1.CLK_B
*93 WORD\[0\].W.B1.GCLK
*94 WORD\[0\].W.B1.SEL_B
*95 WORD\[0\].W.B1.WE
*96 WORD\[0\].W.B1.q_wire\[0\]
*97 WORD\[0\].W.B1.q_wire\[1\]
*98 WORD\[0\].W.B1.q_wire\[2\]
*99 WORD\[0\].W.B1.q_wire\[3\]
*100 WORD\[0\].W.B1.q_wire\[4\]
*101 WORD\[0\].W.B1.q_wire\[5\]
*102 WORD\[0\].W.B1.q_wire\[6\]
*103 WORD\[0\].W.B1.q_wire\[7\]
*104 WORD\[0\].W.B1.we_wire
*105 WORD\[0\].W.B2.CLK_B
*106 WORD\[0\].W.B2.GCLK
*107 WORD\[0\].W.B2.SEL_B
*108 WORD\[0\].W.B2.WE
*109 WORD\[0\].W.B2.q_wire\[0\]
*110 WORD\[0\].W.B2.q_wire\[1\]
*111 WORD\[0\].W.B2.q_wire\[2\]
*112 WORD\[0\].W.B2.q_wire\[3\]
*113 WORD\[0\].W.B2.q_wire\[4\]
*114 WORD\[0\].W.B2.q_wire\[5\]
*115 WORD\[0\].W.B2.q_wire\[6\]
*116 WORD\[0\].W.B2.q_wire\[7\]
*117 WORD\[0\].W.B2.we_wire
*118 WORD\[0\].W.B3.CLK_B
*119 WORD\[0\].W.B3.GCLK
*120 WORD\[0\].W.B3.SEL_B
*121 WORD\[0\].W.B3.WE
*122 WORD\[0\].W.B3.q_wire\[0\]
*123 WORD\[0\].W.B3.q_wire\[1\]
*124 WORD\[0\].W.B3.q_wire\[2\]
*125 WORD\[0\].W.B3.q_wire\[3\]
*126 WORD\[0\].W.B3.q_wire\[4\]
*127 WORD\[0\].W.B3.q_wire\[5\]
*128 WORD\[0\].W.B3.q_wire\[6\]
*129 WORD\[0\].W.B3.q_wire\[7\]
*130 WORD\[0\].W.B3.we_wire
*131 WORD\[0\].W.CLK
*132 WORD\[0\].W.SEL
*133 WORD\[1\].W.B0.CLK
*134 WORD\[1\].W.B0.CLK_B
*135 WORD\[1\].W.B0.GCLK
*136 WORD\[1\].W.B0.SEL
*137 WORD\[1\].W.B0.SEL_B
*138 WORD\[1\].W.B0.q_wire\[0\]
*139 WORD\[1\].W.B0.q_wire\[1\]
*140 WORD\[1\].W.B0.q_wire\[2\]
*141 WORD\[1\].W.B0.q_wire\[3\]
*142 WORD\[1\].W.B0.q_wire\[4\]
*143 WORD\[1\].W.B0.q_wire\[5\]
*144 WORD\[1\].W.B0.q_wire\[6\]
*145 WORD\[1\].W.B0.q_wire\[7\]
*146 WORD\[1\].W.B0.we_wire
*147 WORD\[1\].W.B1.CLK_B
*148 WORD\[1\].W.B1.GCLK
*149 WORD\[1\].W.B1.SEL_B
*150 WORD\[1\].W.B1.q_wire\[0\]
*151 WORD\[1\].W.B1.q_wire\[1\]
*152 WORD\[1\].W.B1.q_wire\[2\]
*153 WORD\[1\].W.B1.q_wire\[3\]
*154 WORD\[1\].W.B1.q_wire\[4\]
*155 WORD\[1\].W.B1.q_wire\[5\]
*156 WORD\[1\].W.B1.q_wire\[6\]
*157 WORD\[1\].W.B1.q_wire\[7\]
*158 WORD\[1\].W.B1.we_wire
*159 WORD\[1\].W.B2.CLK_B
*160 WORD\[1\].W.B2.GCLK
*161 WORD\[1\].W.B2.SEL_B
*162 WORD\[1\].W.B2.q_wire\[0\]
*163 WORD\[1\].W.B2.q_wire\[1\]
*164 WORD\[1\].W.B2.q_wire\[2\]
*165 WORD\[1\].W.B2.q_wire\[3\]
*166 WORD\[1\].W.B2.q_wire\[4\]
*167 WORD\[1\].W.B2.q_wire\[5\]
*168 WORD\[1\].W.B2.q_wire\[6\]
*169 WORD\[1\].W.B2.q_wire\[7\]
*170 WORD\[1\].W.B2.we_wire
*171 WORD\[1\].W.B3.CLK_B
*172 WORD\[1\].W.B3.GCLK
*173 WORD\[1\].W.B3.SEL_B
*174 WORD\[1\].W.B3.q_wire\[0\]
*175 WORD\[1\].W.B3.q_wire\[1\]
*176 WORD\[1\].W.B3.q_wire\[2\]
*177 WORD\[1\].W.B3.q_wire\[3\]
*178 WORD\[1\].W.B3.q_wire\[4\]
*179 WORD\[1\].W.B3.q_wire\[5\]
*180 WORD\[1\].W.B3.q_wire\[6\]
*181 WORD\[1\].W.B3.q_wire\[7\]
*182 WORD\[1\].W.B3.we_wire
*183 WORD\[1\].W.SEL
*184 WORD\[2\].W.B0.CLK
*185 WORD\[2\].W.B0.CLK_B
*186 WORD\[2\].W.B0.GCLK
*187 WORD\[2\].W.B0.SEL
*188 WORD\[2\].W.B0.SEL_B
*189 WORD\[2\].W.B0.q_wire\[0\]
*190 WORD\[2\].W.B0.q_wire\[1\]
*191 WORD\[2\].W.B0.q_wire\[2\]
*192 WORD\[2\].W.B0.q_wire\[3\]
*193 WORD\[2\].W.B0.q_wire\[4\]
*194 WORD\[2\].W.B0.q_wire\[5\]
*195 WORD\[2\].W.B0.q_wire\[6\]
*196 WORD\[2\].W.B0.q_wire\[7\]
*197 WORD\[2\].W.B0.we_wire
*198 WORD\[2\].W.B1.CLK_B
*199 WORD\[2\].W.B1.GCLK
*200 WORD\[2\].W.B1.SEL_B
*201 WORD\[2\].W.B1.q_wire\[0\]
*202 WORD\[2\].W.B1.q_wire\[1\]
*203 WORD\[2\].W.B1.q_wire\[2\]
*204 WORD\[2\].W.B1.q_wire\[3\]
*205 WORD\[2\].W.B1.q_wire\[4\]
*206 WORD\[2\].W.B1.q_wire\[5\]
*207 WORD\[2\].W.B1.q_wire\[6\]
*208 WORD\[2\].W.B1.q_wire\[7\]
*209 WORD\[2\].W.B1.we_wire
*210 WORD\[2\].W.B2.CLK_B
*211 WORD\[2\].W.B2.GCLK
*212 WORD\[2\].W.B2.SEL_B
*213 WORD\[2\].W.B2.q_wire\[0\]
*214 WORD\[2\].W.B2.q_wire\[1\]
*215 WORD\[2\].W.B2.q_wire\[2\]
*216 WORD\[2\].W.B2.q_wire\[3\]
*217 WORD\[2\].W.B2.q_wire\[4\]
*218 WORD\[2\].W.B2.q_wire\[5\]
*219 WORD\[2\].W.B2.q_wire\[6\]
*220 WORD\[2\].W.B2.q_wire\[7\]
*221 WORD\[2\].W.B2.we_wire
*222 WORD\[2\].W.B3.CLK_B
*223 WORD\[2\].W.B3.GCLK
*224 WORD\[2\].W.B3.SEL_B
*225 WORD\[2\].W.B3.q_wire\[0\]
*226 WORD\[2\].W.B3.q_wire\[1\]
*227 WORD\[2\].W.B3.q_wire\[2\]
*228 WORD\[2\].W.B3.q_wire\[3\]
*229 WORD\[2\].W.B3.q_wire\[4\]
*230 WORD\[2\].W.B3.q_wire\[5\]
*231 WORD\[2\].W.B3.q_wire\[6\]
*232 WORD\[2\].W.B3.q_wire\[7\]
*233 WORD\[2\].W.B3.we_wire
*234 WORD\[2\].W.SEL
*235 WORD\[3\].W.B0.CLK
*236 WORD\[3\].W.B0.CLK_B
*237 WORD\[3\].W.B0.GCLK
*238 WORD\[3\].W.B0.SEL
*239 WORD\[3\].W.B0.SEL_B
*240 WORD\[3\].W.B0.q_wire\[0\]
*241 WORD\[3\].W.B0.q_wire\[1\]
*242 WORD\[3\].W.B0.q_wire\[2\]
*243 WORD\[3\].W.B0.q_wire\[3\]
*244 WORD\[3\].W.B0.q_wire\[4\]
*245 WORD\[3\].W.B0.q_wire\[5\]
*246 WORD\[3\].W.B0.q_wire\[6\]
*247 WORD\[3\].W.B0.q_wire\[7\]
*248 WORD\[3\].W.B0.we_wire
*249 WORD\[3\].W.B1.CLK_B
*250 WORD\[3\].W.B1.GCLK
*251 WORD\[3\].W.B1.SEL_B
*252 WORD\[3\].W.B1.q_wire\[0\]
*253 WORD\[3\].W.B1.q_wire\[1\]
*254 WORD\[3\].W.B1.q_wire\[2\]
*255 WORD\[3\].W.B1.q_wire\[3\]
*256 WORD\[3\].W.B1.q_wire\[4\]
*257 WORD\[3\].W.B1.q_wire\[5\]
*258 WORD\[3\].W.B1.q_wire\[6\]
*259 WORD\[3\].W.B1.q_wire\[7\]
*260 WORD\[3\].W.B1.we_wire
*261 WORD\[3\].W.B2.CLK_B
*262 WORD\[3\].W.B2.GCLK
*263 WORD\[3\].W.B2.SEL_B
*264 WORD\[3\].W.B2.q_wire\[0\]
*265 WORD\[3\].W.B2.q_wire\[1\]
*266 WORD\[3\].W.B2.q_wire\[2\]
*267 WORD\[3\].W.B2.q_wire\[3\]
*268 WORD\[3\].W.B2.q_wire\[4\]
*269 WORD\[3\].W.B2.q_wire\[5\]
*270 WORD\[3\].W.B2.q_wire\[6\]
*271 WORD\[3\].W.B2.q_wire\[7\]
*272 WORD\[3\].W.B2.we_wire
*273 WORD\[3\].W.B3.CLK_B
*274 WORD\[3\].W.B3.GCLK
*275 WORD\[3\].W.B3.SEL_B
*276 WORD\[3\].W.B3.q_wire\[0\]
*277 WORD\[3\].W.B3.q_wire\[1\]
*278 WORD\[3\].W.B3.q_wire\[2\]
*279 WORD\[3\].W.B3.q_wire\[3\]
*280 WORD\[3\].W.B3.q_wire\[4\]
*281 WORD\[3\].W.B3.q_wire\[5\]
*282 WORD\[3\].W.B3.q_wire\[6\]
*283 WORD\[3\].W.B3.q_wire\[7\]
*284 WORD\[3\].W.B3.we_wire
*285 WORD\[3\].W.SEL
*286 WORD\[4\].W.B0.CLK
*287 WORD\[4\].W.B0.CLK_B
*288 WORD\[4\].W.B0.GCLK
*289 WORD\[4\].W.B0.SEL
*290 WORD\[4\].W.B0.SEL_B
*291 WORD\[4\].W.B0.q_wire\[0\]
*292 WORD\[4\].W.B0.q_wire\[1\]
*293 WORD\[4\].W.B0.q_wire\[2\]
*294 WORD\[4\].W.B0.q_wire\[3\]
*295 WORD\[4\].W.B0.q_wire\[4\]
*296 WORD\[4\].W.B0.q_wire\[5\]
*297 WORD\[4\].W.B0.q_wire\[6\]
*298 WORD\[4\].W.B0.q_wire\[7\]
*299 WORD\[4\].W.B0.we_wire
*300 WORD\[4\].W.B1.CLK_B
*301 WORD\[4\].W.B1.GCLK
*302 WORD\[4\].W.B1.SEL_B
*303 WORD\[4\].W.B1.q_wire\[0\]
*304 WORD\[4\].W.B1.q_wire\[1\]
*305 WORD\[4\].W.B1.q_wire\[2\]
*306 WORD\[4\].W.B1.q_wire\[3\]
*307 WORD\[4\].W.B1.q_wire\[4\]
*308 WORD\[4\].W.B1.q_wire\[5\]
*309 WORD\[4\].W.B1.q_wire\[6\]
*310 WORD\[4\].W.B1.q_wire\[7\]
*311 WORD\[4\].W.B1.we_wire
*312 WORD\[4\].W.B2.CLK_B
*313 WORD\[4\].W.B2.GCLK
*314 WORD\[4\].W.B2.SEL_B
*315 WORD\[4\].W.B2.q_wire\[0\]
*316 WORD\[4\].W.B2.q_wire\[1\]
*317 WORD\[4\].W.B2.q_wire\[2\]
*318 WORD\[4\].W.B2.q_wire\[3\]
*319 WORD\[4\].W.B2.q_wire\[4\]
*320 WORD\[4\].W.B2.q_wire\[5\]
*321 WORD\[4\].W.B2.q_wire\[6\]
*322 WORD\[4\].W.B2.q_wire\[7\]
*323 WORD\[4\].W.B2.we_wire
*324 WORD\[4\].W.B3.CLK_B
*325 WORD\[4\].W.B3.GCLK
*326 WORD\[4\].W.B3.SEL_B
*327 WORD\[4\].W.B3.q_wire\[0\]
*328 WORD\[4\].W.B3.q_wire\[1\]
*329 WORD\[4\].W.B3.q_wire\[2\]
*330 WORD\[4\].W.B3.q_wire\[3\]
*331 WORD\[4\].W.B3.q_wire\[4\]
*332 WORD\[4\].W.B3.q_wire\[5\]
*333 WORD\[4\].W.B3.q_wire\[6\]
*334 WORD\[4\].W.B3.q_wire\[7\]
*335 WORD\[4\].W.B3.we_wire
*336 WORD\[4\].W.SEL
*337 WORD\[5\].W.B0.CLK
*338 WORD\[5\].W.B0.CLK_B
*339 WORD\[5\].W.B0.GCLK
*340 WORD\[5\].W.B0.SEL
*341 WORD\[5\].W.B0.SEL_B
*342 WORD\[5\].W.B0.q_wire\[0\]
*343 WORD\[5\].W.B0.q_wire\[1\]
*344 WORD\[5\].W.B0.q_wire\[2\]
*345 WORD\[5\].W.B0.q_wire\[3\]
*346 WORD\[5\].W.B0.q_wire\[4\]
*347 WORD\[5\].W.B0.q_wire\[5\]
*348 WORD\[5\].W.B0.q_wire\[6\]
*349 WORD\[5\].W.B0.q_wire\[7\]
*350 WORD\[5\].W.B0.we_wire
*351 WORD\[5\].W.B1.CLK_B
*352 WORD\[5\].W.B1.GCLK
*353 WORD\[5\].W.B1.SEL_B
*354 WORD\[5\].W.B1.q_wire\[0\]
*355 WORD\[5\].W.B1.q_wire\[1\]
*356 WORD\[5\].W.B1.q_wire\[2\]
*357 WORD\[5\].W.B1.q_wire\[3\]
*358 WORD\[5\].W.B1.q_wire\[4\]
*359 WORD\[5\].W.B1.q_wire\[5\]
*360 WORD\[5\].W.B1.q_wire\[6\]
*361 WORD\[5\].W.B1.q_wire\[7\]
*362 WORD\[5\].W.B1.we_wire
*363 WORD\[5\].W.B2.CLK_B
*364 WORD\[5\].W.B2.GCLK
*365 WORD\[5\].W.B2.SEL_B
*366 WORD\[5\].W.B2.q_wire\[0\]
*367 WORD\[5\].W.B2.q_wire\[1\]
*368 WORD\[5\].W.B2.q_wire\[2\]
*369 WORD\[5\].W.B2.q_wire\[3\]
*370 WORD\[5\].W.B2.q_wire\[4\]
*371 WORD\[5\].W.B2.q_wire\[5\]
*372 WORD\[5\].W.B2.q_wire\[6\]
*373 WORD\[5\].W.B2.q_wire\[7\]
*374 WORD\[5\].W.B2.we_wire
*375 WORD\[5\].W.B3.CLK_B
*376 WORD\[5\].W.B3.GCLK
*377 WORD\[5\].W.B3.SEL_B
*378 WORD\[5\].W.B3.q_wire\[0\]
*379 WORD\[5\].W.B3.q_wire\[1\]
*380 WORD\[5\].W.B3.q_wire\[2\]
*381 WORD\[5\].W.B3.q_wire\[3\]
*382 WORD\[5\].W.B3.q_wire\[4\]
*383 WORD\[5\].W.B3.q_wire\[5\]
*384 WORD\[5\].W.B3.q_wire\[6\]
*385 WORD\[5\].W.B3.q_wire\[7\]
*386 WORD\[5\].W.B3.we_wire
*387 WORD\[5\].W.SEL
*388 WORD\[6\].W.B0.CLK
*389 WORD\[6\].W.B0.CLK_B
*390 WORD\[6\].W.B0.GCLK
*391 WORD\[6\].W.B0.SEL
*392 WORD\[6\].W.B0.SEL_B
*393 WORD\[6\].W.B0.q_wire\[0\]
*394 WORD\[6\].W.B0.q_wire\[1\]
*395 WORD\[6\].W.B0.q_wire\[2\]
*396 WORD\[6\].W.B0.q_wire\[3\]
*397 WORD\[6\].W.B0.q_wire\[4\]
*398 WORD\[6\].W.B0.q_wire\[5\]
*399 WORD\[6\].W.B0.q_wire\[6\]
*400 WORD\[6\].W.B0.q_wire\[7\]
*401 WORD\[6\].W.B0.we_wire
*402 WORD\[6\].W.B1.CLK_B
*403 WORD\[6\].W.B1.GCLK
*404 WORD\[6\].W.B1.SEL_B
*405 WORD\[6\].W.B1.q_wire\[0\]
*406 WORD\[6\].W.B1.q_wire\[1\]
*407 WORD\[6\].W.B1.q_wire\[2\]
*408 WORD\[6\].W.B1.q_wire\[3\]
*409 WORD\[6\].W.B1.q_wire\[4\]
*410 WORD\[6\].W.B1.q_wire\[5\]
*411 WORD\[6\].W.B1.q_wire\[6\]
*412 WORD\[6\].W.B1.q_wire\[7\]
*413 WORD\[6\].W.B1.we_wire
*414 WORD\[6\].W.B2.CLK_B
*415 WORD\[6\].W.B2.GCLK
*416 WORD\[6\].W.B2.SEL_B
*417 WORD\[6\].W.B2.q_wire\[0\]
*418 WORD\[6\].W.B2.q_wire\[1\]
*419 WORD\[6\].W.B2.q_wire\[2\]
*420 WORD\[6\].W.B2.q_wire\[3\]
*421 WORD\[6\].W.B2.q_wire\[4\]
*422 WORD\[6\].W.B2.q_wire\[5\]
*423 WORD\[6\].W.B2.q_wire\[6\]
*424 WORD\[6\].W.B2.q_wire\[7\]
*425 WORD\[6\].W.B2.we_wire
*426 WORD\[6\].W.B3.CLK_B
*427 WORD\[6\].W.B3.GCLK
*428 WORD\[6\].W.B3.SEL_B
*429 WORD\[6\].W.B3.q_wire\[0\]
*430 WORD\[6\].W.B3.q_wire\[1\]
*431 WORD\[6\].W.B3.q_wire\[2\]
*432 WORD\[6\].W.B3.q_wire\[3\]
*433 WORD\[6\].W.B3.q_wire\[4\]
*434 WORD\[6\].W.B3.q_wire\[5\]
*435 WORD\[6\].W.B3.q_wire\[6\]
*436 WORD\[6\].W.B3.q_wire\[7\]
*437 WORD\[6\].W.B3.we_wire
*438 WORD\[6\].W.SEL
*439 WORD\[7\].W.B0.CLK
*440 WORD\[7\].W.B0.CLK_B
*441 WORD\[7\].W.B0.GCLK
*442 WORD\[7\].W.B0.SEL
*443 WORD\[7\].W.B0.SEL_B
*444 WORD\[7\].W.B0.q_wire\[0\]
*445 WORD\[7\].W.B0.q_wire\[1\]
*446 WORD\[7\].W.B0.q_wire\[2\]
*447 WORD\[7\].W.B0.q_wire\[3\]
*448 WORD\[7\].W.B0.q_wire\[4\]
*449 WORD\[7\].W.B0.q_wire\[5\]
*450 WORD\[7\].W.B0.q_wire\[6\]
*451 WORD\[7\].W.B0.q_wire\[7\]
*452 WORD\[7\].W.B0.we_wire
*453 WORD\[7\].W.B1.CLK_B
*454 WORD\[7\].W.B1.GCLK
*455 WORD\[7\].W.B1.SEL_B
*456 WORD\[7\].W.B1.q_wire\[0\]
*457 WORD\[7\].W.B1.q_wire\[1\]
*458 WORD\[7\].W.B1.q_wire\[2\]
*459 WORD\[7\].W.B1.q_wire\[3\]
*460 WORD\[7\].W.B1.q_wire\[4\]
*461 WORD\[7\].W.B1.q_wire\[5\]
*462 WORD\[7\].W.B1.q_wire\[6\]
*463 WORD\[7\].W.B1.q_wire\[7\]
*464 WORD\[7\].W.B1.we_wire
*465 WORD\[7\].W.B2.CLK_B
*466 WORD\[7\].W.B2.GCLK
*467 WORD\[7\].W.B2.SEL_B
*468 WORD\[7\].W.B2.q_wire\[0\]
*469 WORD\[7\].W.B2.q_wire\[1\]
*470 WORD\[7\].W.B2.q_wire\[2\]
*471 WORD\[7\].W.B2.q_wire\[3\]
*472 WORD\[7\].W.B2.q_wire\[4\]
*473 WORD\[7\].W.B2.q_wire\[5\]
*474 WORD\[7\].W.B2.q_wire\[6\]
*475 WORD\[7\].W.B2.q_wire\[7\]
*476 WORD\[7\].W.B2.we_wire
*477 WORD\[7\].W.B3.CLK_B
*478 WORD\[7\].W.B3.GCLK
*479 WORD\[7\].W.B3.SEL_B
*480 WORD\[7\].W.B3.q_wire\[0\]
*481 WORD\[7\].W.B3.q_wire\[1\]
*482 WORD\[7\].W.B3.q_wire\[2\]
*483 WORD\[7\].W.B3.q_wire\[3\]
*484 WORD\[7\].W.B3.q_wire\[4\]
*485 WORD\[7\].W.B3.q_wire\[5\]
*486 WORD\[7\].W.B3.q_wire\[6\]
*487 WORD\[7\].W.B3.q_wire\[7\]
*488 WORD\[7\].W.B3.we_wire
*489 WORD\[7\].W.SEL

*D_NET *0 0.00166370219412
*CONN
*P A[0] I
*I DEC.ABUF\[0\]:A I
*CAP
0 DEC.ABUF\[0\]:A 5.034052896000001e-05
1 *0:2 0.0005567274927
2 *0:4 0.00105663417246
3 *0:1 0
4 *0:5 0
*RES
0 DEC.ABUF\[0\]:A *0:1 0.4107142857142857
1 *0:2 *0:3 0.9729000000000001
2 *0:4 *0:5 11.991071428571427
3 *0:1 *0:4 0
4 DEC.ABUF\[0\]:A DEC.ABUF\[0\]:A 0
5 *0:5 *0:2 0
*END

*D_NET *1 0.0019526551774
*CONN
*P A[1] I
*I DEC.ABUF\[1\]:A I
*CAP
5 DEC.ABUF\[1\]:A 0.0002062676048
6 *1:2 0.0004778928123
7 *1:4 0.0012684947603
8 *1:1 0
9 *1:5 0
*RES
6 DEC.ABUF\[1\]:A *1:1 2.0535714285714284
7 *1:2 *1:3 0.8287666666666667
8 *1:4 *1:5 14.419642857142854
9 *1:1 *1:4 0
10 DEC.ABUF\[1\]:A DEC.ABUF\[1\]:A 0
11 *1:5 *1:2 0
*END

*D_NET *2 0.00205902104256
*CONN
*P A[2] I
*I DEC.ABUF\[2\]:A I
*CAP
10 DEC.ABUF\[2\]:A 0.00016728583584
11 *2:2 0.0005173101524999999
12 *2:4 0.0013744250542200003
13 *2:1 0
14 *2:5 0
*RES
12 DEC.ABUF\[2\]:A *2:1 1.6428571428571428
13 *2:2 *2:3 0.9008333333333334
14 *2:4 *2:5 15.633928571428571
15 *2:1 *2:4 0
16 DEC.ABUF\[2\]:A DEC.ABUF\[2\]:A 0
17 *2:5 *2:2 0
*END

*D_NET *3 0.033442529534640004
*CONN
*P CLK I
*I CLKBUF:A I
*CAP
15 *3:1 0.0011479875956999998
16 *3:3 0.00038132854871999994
17 *3:5 0.0017392476987000002
18 *3:7 0.0250980495984
19 *3:8 0.00012830406688
20 *3:9 0.00052698270286
21 *3:11 8.286251159999999e-05
22 *3:12 0.0006749795133
23 *3:14 0.00016946796088000002
24 *3:16 0.003493319337599999
25 *3:4 0
26 CLKBUF:A 0
27 *3:15 0
*RES
18 *3:1 *3:2 2.0539
19 *3:3 *3:4 4.249999999999999
20 *3:5 *3:6 3.1349
21 *3:7 *3:6 0.10653333333333334
22 *3:8 CLKBUF:A 1.232142857142857
23 *3:9 *3:10 5.919642857142857
24 *3:11 *3:12 0.10653333333333334
25 *3:12 *3:13 1.1891
26 *3:14 *3:15 1.8214285714285714
27 *3:7 *3:11 45.690266666666666
28 *3:16 *3:17 6.341866666666666
29 *3:3 *3:2 0
30 *3:4 *3:5 0
31 *3:9 *3:17 0
32 *3:8 *3:10 0
33 CLKBUF:A CLKBUF:A 0
34 *3:15 *3:13 0
35 *3:14 *3:16 0
*END

*D_NET *4 0.002439535883740001
*CONN
*P Di[0] I
*I WORD\[7\].W.B0.BIT\[0\].LATCH:D I
*I WORD\[6\].W.B0.BIT\[0\].LATCH:D I
*I WORD\[5\].W.B0.BIT\[0\].LATCH:D I
*I WORD\[4\].W.B0.BIT\[0\].LATCH:D I
*I WORD\[3\].W.B0.BIT\[0\].LATCH:D I
*I WORD\[2\].W.B0.BIT\[0\].LATCH:D I
*I WORD\[1\].W.B0.BIT\[0\].LATCH:D I
*I WORD\[0\].W.B0.BIT\[0\].LATCH:D I
*CAP
28 *4:1 0.00016728583584
29 *4:2 2.3813806740000006e-05
30 *4:4 8.223124824000001e-05
31 *4:5 0.00043429369568000003
32 *4:6 0.00019595053436
33 WORD\[0\].W.B0.BIT\[0\].LATCH:D 5.034052896000001e-05
34 WORD\[2\].W.B0.BIT\[0\].LATCH:D 5.034052896000001e-05
35 *4:7 0.00024891568132000004
36 *4:10 0.00019595053436
37 WORD\[4\].W.B0.BIT\[0\].LATCH:D 5.034052896000001e-05
38 *4:11 0.00024891568132000004
39 *4:13 0.00019595053436
40 WORD\[6\].W.B0.BIT\[0\].LATCH:D 5.034052896000001e-05
41 *4:14 0.00024891568132000004
42 *4:16 0.00019595053436
43 WORD\[1\].W.B0.BIT\[0\].LATCH:D 0
44 *4:8 0
45 *4:9 0
46 WORD\[3\].W.B0.BIT\[0\].LATCH:D 0
47 *4:12 0
48 WORD\[5\].W.B0.BIT\[0\].LATCH:D 0
49 *4:15 0
50 WORD\[7\].W.B0.BIT\[0\].LATCH:D 0
*RES
36 *4:1 WORD\[0\].W.B0.BIT\[0\].LATCH:D 1.6428571428571428
37 *4:2 *4:3 0.15178571428571427
38 *4:4 *4:3 0.8214285714285714
39 *4:5 *4:4 4.857142857142857
40 *4:6 *4:7 2.1249999999999996
41 WORD\[0\].W.B0.BIT\[0\].LATCH:D *4:8 0.4107142857142857
42 WORD\[2\].W.B0.BIT\[0\].LATCH:D *4:9 0.4107142857142857
43 *4:7 *4:10 2.7321428571428568
44 *4:10 *4:11 2.1249999999999996
45 WORD\[4\].W.B0.BIT\[0\].LATCH:D *4:12 0.4107142857142857
46 *4:11 *4:13 2.7321428571428568
47 *4:13 *4:14 2.1249999999999996
48 WORD\[6\].W.B0.BIT\[0\].LATCH:D *4:15 0.4107142857142857
49 *4:14 *4:16 2.7321428571428568
50 *4:16 *4:17 2.1249999999999996
51 WORD\[0\].W.B0.BIT\[0\].LATCH:D WORD\[0\].W.B0.BIT\[0\].LATCH:D 0
52 *4:1 *4:2 0
53 WORD\[1\].W.B0.BIT\[0\].LATCH:D WORD\[1\].W.B0.BIT\[0\].LATCH:D 0
54 WORD\[1\].W.B0.BIT\[0\].LATCH:D *4:7 0
55 *4:8 *4:6 0
56 WORD\[2\].W.B0.BIT\[0\].LATCH:D WORD\[2\].W.B0.BIT\[0\].LATCH:D 0
57 *4:9 *4:10 0
58 WORD\[3\].W.B0.BIT\[0\].LATCH:D WORD\[3\].W.B0.BIT\[0\].LATCH:D 0
59 WORD\[3\].W.B0.BIT\[0\].LATCH:D *4:11 0
60 WORD\[4\].W.B0.BIT\[0\].LATCH:D WORD\[4\].W.B0.BIT\[0\].LATCH:D 0
61 *4:12 *4:13 0
62 WORD\[5\].W.B0.BIT\[0\].LATCH:D WORD\[5\].W.B0.BIT\[0\].LATCH:D 0
63 WORD\[5\].W.B0.BIT\[0\].LATCH:D *4:14 0
64 WORD\[6\].W.B0.BIT\[0\].LATCH:D WORD\[6\].W.B0.BIT\[0\].LATCH:D 0
65 *4:15 *4:16 0
66 WORD\[7\].W.B0.BIT\[0\].LATCH:D WORD\[7\].W.B0.BIT\[0\].LATCH:D 0
67 WORD\[7\].W.B0.BIT\[0\].LATCH:D *4:17 0
*END

*D_NET *5 0.002689679749980001
*CONN
*P Di[10] I
*I WORD\[7\].W.B1.BIT\[2\].LATCH:D I
*I WORD\[6\].W.B1.BIT\[2\].LATCH:D I
*I WORD\[5\].W.B1.BIT\[2\].LATCH:D I
*I WORD\[4\].W.B1.BIT\[2\].LATCH:D I
*I WORD\[3\].W.B1.BIT\[2\].LATCH:D I
*I WORD\[2\].W.B1.BIT\[2\].LATCH:D I
*I WORD\[1\].W.B1.BIT\[2\].LATCH:D I
*I WORD\[0\].W.B1.BIT\[2\].LATCH:D I
*CAP
51 WORD\[0\].W.B1.BIT\[2\].LATCH:D 0.00012830406688
52 *5:2 0.00063625666624
53 *5:4 0.00039456983545999995
54 *5:6 0.00019595053436
55 *5:7 0.00024891568132000004
56 *5:8 0.00019595053436
57 *5:9 0.00024891568132000004
58 *5:10 0.00019595053436
59 *5:11 0.00024891568132000004
60 *5:12 0.00019595053436
61 *5:3 0
62 WORD\[1\].W.B1.BIT\[2\].LATCH:D 0
63 WORD\[2\].W.B1.BIT\[2\].LATCH:D 0
64 WORD\[3\].W.B1.BIT\[2\].LATCH:D 0
65 WORD\[4\].W.B1.BIT\[2\].LATCH:D 0
66 WORD\[5\].W.B1.BIT\[2\].LATCH:D 0
67 WORD\[6\].W.B1.BIT\[2\].LATCH:D 0
68 WORD\[7\].W.B1.BIT\[2\].LATCH:D 0
*RES
68 WORD\[0\].W.B1.BIT\[2\].LATCH:D *5:1 1.232142857142857
69 *5:2 *5:1 0.30357142857142855
70 *5:2 *5:3 6.160714285714286
71 *5:4 *5:5 4.4017857142857135
72 *5:6 *5:7 2.1249999999999996
73 *5:7 *5:8 2.7321428571428568
74 *5:8 *5:9 2.1249999999999996
75 *5:9 *5:10 2.7321428571428568
76 *5:10 *5:11 2.1249999999999996
77 *5:11 *5:12 2.7321428571428568
78 *5:12 *5:13 2.1249999999999996
79 WORD\[0\].W.B1.BIT\[2\].LATCH:D WORD\[0\].W.B1.BIT\[2\].LATCH:D 0
80 *5:3 *5:5 0
81 WORD\[1\].W.B1.BIT\[2\].LATCH:D WORD\[1\].W.B1.BIT\[2\].LATCH:D 0
82 WORD\[1\].W.B1.BIT\[2\].LATCH:D *5:7 0
83 WORD\[0\].W.B1.BIT\[2\].LATCH:D *5:6 0
84 WORD\[2\].W.B1.BIT\[2\].LATCH:D WORD\[2\].W.B1.BIT\[2\].LATCH:D 0
85 WORD\[2\].W.B1.BIT\[2\].LATCH:D *5:8 0
86 WORD\[3\].W.B1.BIT\[2\].LATCH:D WORD\[3\].W.B1.BIT\[2\].LATCH:D 0
87 WORD\[3\].W.B1.BIT\[2\].LATCH:D *5:9 0
88 WORD\[4\].W.B1.BIT\[2\].LATCH:D WORD\[4\].W.B1.BIT\[2\].LATCH:D 0
89 WORD\[4\].W.B1.BIT\[2\].LATCH:D *5:10 0
90 WORD\[5\].W.B1.BIT\[2\].LATCH:D WORD\[5\].W.B1.BIT\[2\].LATCH:D 0
91 WORD\[5\].W.B1.BIT\[2\].LATCH:D *5:11 0
92 WORD\[6\].W.B1.BIT\[2\].LATCH:D WORD\[6\].W.B1.BIT\[2\].LATCH:D 0
93 WORD\[6\].W.B1.BIT\[2\].LATCH:D *5:12 0
94 WORD\[7\].W.B1.BIT\[2\].LATCH:D WORD\[7\].W.B1.BIT\[2\].LATCH:D 0
95 WORD\[7\].W.B1.BIT\[2\].LATCH:D *5:13 0
*END

*D_NET *6 0.0029782147295000006
*CONN
*P Di[11] I
*I WORD\[7\].W.B1.BIT\[3\].LATCH:D I
*I WORD\[6\].W.B1.BIT\[3\].LATCH:D I
*I WORD\[5\].W.B1.BIT\[3\].LATCH:D I
*I WORD\[4\].W.B1.BIT\[3\].LATCH:D I
*I WORD\[3\].W.B1.BIT\[3\].LATCH:D I
*I WORD\[2\].W.B1.BIT\[3\].LATCH:D I
*I WORD\[1\].W.B1.BIT\[3\].LATCH:D I
*I WORD\[0\].W.B1.BIT\[3\].LATCH:D I
*CAP
69 *6:1 0.00016946796088000002
70 *6:3 0.00090793944608
71 *6:5 0.00026215696806
72 *6:2 0.00019595053436
73 *6:7 0.00024891568132000004
74 WORD\[3\].W.B1.BIT\[3\].LATCH:D 1.2629904640000002e-05
75 *6:8 0.00019595053436
76 WORD\[4\].W.B1.BIT\[3\].LATCH:D 4.906938432e-05
77 *6:11 0.00024235241848000002
78 *6:9 0.00024891568132000004
79 *6:13 0.00024891568132000004
80 *6:14 0.00019595053436
81 WORD\[0\].W.B1.BIT\[3\].LATCH:D 0
82 *6:4 0
83 WORD\[1\].W.B1.BIT\[3\].LATCH:D 0
84 WORD\[2\].W.B1.BIT\[3\].LATCH:D 0
85 *6:10 0
86 WORD\[5\].W.B1.BIT\[3\].LATCH:D 0
87 WORD\[6\].W.B1.BIT\[3\].LATCH:D 0
88 WORD\[7\].W.B1.BIT\[3\].LATCH:D 0
*RES
96 *6:1 *6:2 1.8214285714285714
97 *6:3 *6:4 9.446428571428571
98 *6:5 *6:6 2.883928571428571
99 *6:2 *6:7 2.1249999999999996
100 *6:7 *6:8 2.7321428571428568
101 WORD\[3\].W.B1.BIT\[3\].LATCH:D WORD\[3\].W.B1.BIT\[3\].LATCH:D 0.01339285714285714
102 *6:8 *6:9 2.1249999999999996
103 WORD\[4\].W.B1.BIT\[3\].LATCH:D *6:10 0.39732142857142855
104 *6:11 *6:12 0.4107142857142857
105 *6:9 *6:11 2.7321428571428568
106 *6:11 *6:13 2.1249999999999996
107 *6:13 *6:14 2.7321428571428568
108 *6:14 *6:15 2.1249999999999996
109 WORD\[0\].W.B1.BIT\[3\].LATCH:D WORD\[0\].W.B1.BIT\[3\].LATCH:D 0
110 WORD\[0\].W.B1.BIT\[3\].LATCH:D *6:2 0
111 *6:3 *6:1 0
112 *6:4 *6:6 0
113 WORD\[1\].W.B1.BIT\[3\].LATCH:D WORD\[1\].W.B1.BIT\[3\].LATCH:D 0
114 WORD\[1\].W.B1.BIT\[3\].LATCH:D *6:7 0
115 WORD\[2\].W.B1.BIT\[3\].LATCH:D WORD\[2\].W.B1.BIT\[3\].LATCH:D 0
116 WORD\[2\].W.B1.BIT\[3\].LATCH:D *6:8 0
117 WORD\[3\].W.B1.BIT\[3\].LATCH:D WORD\[3\].W.B1.BIT\[3\].LATCH:D 0
118 WORD\[3\].W.B1.BIT\[3\].LATCH:D *6:9 0
119 WORD\[4\].W.B1.BIT\[3\].LATCH:D WORD\[4\].W.B1.BIT\[3\].LATCH:D 0
120 *6:10 *6:12 0
121 WORD\[5\].W.B1.BIT\[3\].LATCH:D WORD\[5\].W.B1.BIT\[3\].LATCH:D 0
122 WORD\[5\].W.B1.BIT\[3\].LATCH:D *6:13 0
123 WORD\[6\].W.B1.BIT\[3\].LATCH:D WORD\[6\].W.B1.BIT\[3\].LATCH:D 0
124 WORD\[6\].W.B1.BIT\[3\].LATCH:D *6:14 0
125 WORD\[7\].W.B1.BIT\[3\].LATCH:D WORD\[7\].W.B1.BIT\[3\].LATCH:D 0
126 WORD\[7\].W.B1.BIT\[3\].LATCH:D *6:15 0
*END

*D_NET *7 0.0033020071037600006
*CONN
*P Di[12] I
*I WORD\[7\].W.B1.BIT\[4\].LATCH:D I
*I WORD\[6\].W.B1.BIT\[4\].LATCH:D I
*I WORD\[5\].W.B1.BIT\[4\].LATCH:D I
*I WORD\[4\].W.B1.BIT\[4\].LATCH:D I
*I WORD\[3\].W.B1.BIT\[4\].LATCH:D I
*I WORD\[2\].W.B1.BIT\[4\].LATCH:D I
*I WORD\[1\].W.B1.BIT\[4\].LATCH:D I
*I WORD\[0\].W.B1.BIT\[4\].LATCH:D I
*CAP
89 *7:1 0.00059318913656
90 *7:3 2.3813806740000006e-05
91 *7:5 0.00018270924762000003
92 *7:4 0.00024891568132000004
93 *7:6 0.00019595053436
94 *7:7 0.00024891568132000004
95 *7:8 0.00019595053436
96 *7:9 0.00024891568132000004
97 *7:10 0.00019595053436
98 *7:12 0.0011676962658
99 *7:2 0
100 WORD\[1\].W.B1.BIT\[4\].LATCH:D 0
101 WORD\[0\].W.B1.BIT\[4\].LATCH:D 0
102 WORD\[2\].W.B1.BIT\[4\].LATCH:D 0
103 WORD\[3\].W.B1.BIT\[4\].LATCH:D 0
104 WORD\[4\].W.B1.BIT\[4\].LATCH:D 0
105 WORD\[5\].W.B1.BIT\[4\].LATCH:D 0
106 WORD\[6\].W.B1.BIT\[4\].LATCH:D 0
107 WORD\[7\].W.B1.BIT\[4\].LATCH:D 0
*RES
127 *7:1 *7:2 6.678571428571428
128 *7:3 *7:4 0.15178571428571427
129 *7:5 *7:3 1.9732142857142856
130 *7:4 *7:6 2.7321428571428568
131 *7:6 *7:7 2.1249999999999996
132 *7:7 *7:8 2.7321428571428568
133 *7:8 *7:9 2.1249999999999996
134 *7:9 *7:10 2.7321428571428568
135 *7:10 *7:11 2.1249999999999996
136 *7:12 *7:13 2.089933333333333
137 *7:2 *7:13 0
138 WORD\[1\].W.B1.BIT\[4\].LATCH:D WORD\[1\].W.B1.BIT\[4\].LATCH:D 0
139 WORD\[1\].W.B1.BIT\[4\].LATCH:D *7:4 0
140 *7:3 *7:12 0
141 WORD\[0\].W.B1.BIT\[4\].LATCH:D WORD\[0\].W.B1.BIT\[4\].LATCH:D 0
142 WORD\[0\].W.B1.BIT\[4\].LATCH:D *7:5 0
143 WORD\[2\].W.B1.BIT\[4\].LATCH:D WORD\[2\].W.B1.BIT\[4\].LATCH:D 0
144 WORD\[2\].W.B1.BIT\[4\].LATCH:D *7:6 0
145 WORD\[3\].W.B1.BIT\[4\].LATCH:D WORD\[3\].W.B1.BIT\[4\].LATCH:D 0
146 WORD\[3\].W.B1.BIT\[4\].LATCH:D *7:7 0
147 WORD\[4\].W.B1.BIT\[4\].LATCH:D WORD\[4\].W.B1.BIT\[4\].LATCH:D 0
148 WORD\[4\].W.B1.BIT\[4\].LATCH:D *7:8 0
149 WORD\[5\].W.B1.BIT\[4\].LATCH:D WORD\[5\].W.B1.BIT\[4\].LATCH:D 0
150 WORD\[5\].W.B1.BIT\[4\].LATCH:D *7:9 0
151 WORD\[6\].W.B1.BIT\[4\].LATCH:D WORD\[6\].W.B1.BIT\[4\].LATCH:D 0
152 WORD\[6\].W.B1.BIT\[4\].LATCH:D *7:10 0
153 WORD\[7\].W.B1.BIT\[4\].LATCH:D WORD\[7\].W.B1.BIT\[4\].LATCH:D 0
154 WORD\[7\].W.B1.BIT\[4\].LATCH:D *7:11 0
*END

*D_NET *8 0.003259931246020001
*CONN
*P Di[13] I
*I WORD\[7\].W.B1.BIT\[5\].LATCH:D I
*I WORD\[6\].W.B1.BIT\[5\].LATCH:D I
*I WORD\[5\].W.B1.BIT\[5\].LATCH:D I
*I WORD\[4\].W.B1.BIT\[5\].LATCH:D I
*I WORD\[3\].W.B1.BIT\[5\].LATCH:D I
*I WORD\[2\].W.B1.BIT\[5\].LATCH:D I
*I WORD\[1\].W.B1.BIT\[5\].LATCH:D I
*I WORD\[0\].W.B1.BIT\[5\].LATCH:D I
*CAP
108 *8:1 0.00019595053436
109 *8:3 0.0012977571356799999
110 *8:5 0.00023567439458000006
111 *8:2 0.00019595053436
112 *8:7 0.00024891568132000004
113 *8:8 0.00019595053436
114 *8:9 0.00024891568132000004
115 *8:10 0.00019595053436
116 *8:11 0.00024891568132000004
117 *8:12 0.00019595053436
118 WORD\[0\].W.B1.BIT\[5\].LATCH:D 0
119 *8:4 0
120 WORD\[1\].W.B1.BIT\[5\].LATCH:D 0
121 WORD\[2\].W.B1.BIT\[5\].LATCH:D 0
122 WORD\[3\].W.B1.BIT\[5\].LATCH:D 0
123 WORD\[4\].W.B1.BIT\[5\].LATCH:D 0
124 WORD\[5\].W.B1.BIT\[5\].LATCH:D 0
125 WORD\[6\].W.B1.BIT\[5\].LATCH:D 0
126 WORD\[7\].W.B1.BIT\[5\].LATCH:D 0
*RES
155 *8:1 *8:2 2.1249999999999996
156 *8:3 *8:4 13.553571428571427
157 *8:5 *8:6 2.580357142857143
158 *8:2 *8:7 2.1249999999999996
159 *8:7 *8:8 2.7321428571428568
160 *8:8 *8:9 2.1249999999999996
161 *8:9 *8:10 2.7321428571428568
162 *8:10 *8:11 2.1249999999999996
163 *8:11 *8:12 2.7321428571428568
164 *8:12 *8:13 2.1249999999999996
165 WORD\[0\].W.B1.BIT\[5\].LATCH:D WORD\[0\].W.B1.BIT\[5\].LATCH:D 0
166 WORD\[0\].W.B1.BIT\[5\].LATCH:D *8:2 0
167 *8:3 *8:1 0
168 *8:4 *8:6 0
169 WORD\[1\].W.B1.BIT\[5\].LATCH:D WORD\[1\].W.B1.BIT\[5\].LATCH:D 0
170 WORD\[1\].W.B1.BIT\[5\].LATCH:D *8:7 0
171 WORD\[2\].W.B1.BIT\[5\].LATCH:D WORD\[2\].W.B1.BIT\[5\].LATCH:D 0
172 WORD\[2\].W.B1.BIT\[5\].LATCH:D *8:8 0
173 WORD\[3\].W.B1.BIT\[5\].LATCH:D WORD\[3\].W.B1.BIT\[5\].LATCH:D 0
174 WORD\[3\].W.B1.BIT\[5\].LATCH:D *8:9 0
175 WORD\[4\].W.B1.BIT\[5\].LATCH:D WORD\[4\].W.B1.BIT\[5\].LATCH:D 0
176 WORD\[4\].W.B1.BIT\[5\].LATCH:D *8:10 0
177 WORD\[5\].W.B1.BIT\[5\].LATCH:D WORD\[5\].W.B1.BIT\[5\].LATCH:D 0
178 WORD\[5\].W.B1.BIT\[5\].LATCH:D *8:11 0
179 WORD\[6\].W.B1.BIT\[5\].LATCH:D WORD\[6\].W.B1.BIT\[5\].LATCH:D 0
180 WORD\[6\].W.B1.BIT\[5\].LATCH:D *8:12 0
181 WORD\[7\].W.B1.BIT\[5\].LATCH:D WORD\[7\].W.B1.BIT\[5\].LATCH:D 0
182 WORD\[7\].W.B1.BIT\[5\].LATCH:D *8:13 0
*END

*D_NET *9 0.0036847643966600014
*CONN
*P Di[14] I
*I WORD\[7\].W.B1.BIT\[6\].LATCH:D I
*I WORD\[6\].W.B1.BIT\[6\].LATCH:D I
*I WORD\[5\].W.B1.BIT\[6\].LATCH:D I
*I WORD\[4\].W.B1.BIT\[6\].LATCH:D I
*I WORD\[3\].W.B1.BIT\[6\].LATCH:D I
*I WORD\[2\].W.B1.BIT\[6\].LATCH:D I
*I WORD\[1\].W.B1.BIT\[6\].LATCH:D I
*I WORD\[0\].W.B1.BIT\[6\].LATCH:D I
*CAP
127 *9:1 0.00022243310784000002
128 *9:3 0.0015316477494400002
129 *9:5 0.00020919182110000001
130 *9:2 0.00019595053436
131 WORD\[2\].W.B1.BIT\[6\].LATCH:D 4.906938432e-05
132 *9:9 0.00024235241848000002
133 *9:7 0.00024891568132000004
134 WORD\[4\].W.B1.BIT\[6\].LATCH:D 4.906938432e-05
135 *9:13 0.00024235241848000002
136 *9:11 0.00024891568132000004
137 *9:15 0.00024891568132000004
138 *9:16 0.00019595053436
139 WORD\[0\].W.B1.BIT\[6\].LATCH:D 0
140 *9:4 0
141 WORD\[1\].W.B1.BIT\[6\].LATCH:D 0
142 *9:8 0
143 WORD\[3\].W.B1.BIT\[6\].LATCH:D 0
144 *9:12 0
145 WORD\[5\].W.B1.BIT\[6\].LATCH:D 0
146 WORD\[6\].W.B1.BIT\[6\].LATCH:D 0
147 WORD\[7\].W.B1.BIT\[6\].LATCH:D 0
*RES
183 *9:1 *9:2 2.4285714285714284
184 *9:3 *9:4 16.017857142857142
185 *9:5 *9:6 2.276785714285714
186 *9:2 *9:7 2.1249999999999996
187 WORD\[2\].W.B1.BIT\[6\].LATCH:D *9:8 0.39732142857142855
188 *9:9 *9:10 0.4107142857142857
189 *9:7 *9:9 2.7321428571428568
190 *9:9 *9:11 2.1249999999999996
191 WORD\[4\].W.B1.BIT\[6\].LATCH:D *9:12 0.39732142857142855
192 *9:13 *9:14 0.4107142857142857
193 *9:11 *9:13 2.7321428571428568
194 *9:13 *9:15 2.1249999999999996
195 *9:15 *9:16 2.7321428571428568
196 *9:16 *9:17 2.1249999999999996
197 WORD\[0\].W.B1.BIT\[6\].LATCH:D WORD\[0\].W.B1.BIT\[6\].LATCH:D 0
198 WORD\[0\].W.B1.BIT\[6\].LATCH:D *9:2 0
199 *9:3 *9:1 0
200 *9:4 *9:6 0
201 WORD\[1\].W.B1.BIT\[6\].LATCH:D WORD\[1\].W.B1.BIT\[6\].LATCH:D 0
202 WORD\[1\].W.B1.BIT\[6\].LATCH:D *9:7 0
203 WORD\[2\].W.B1.BIT\[6\].LATCH:D WORD\[2\].W.B1.BIT\[6\].LATCH:D 0
204 *9:8 *9:10 0
205 WORD\[3\].W.B1.BIT\[6\].LATCH:D WORD\[3\].W.B1.BIT\[6\].LATCH:D 0
206 WORD\[3\].W.B1.BIT\[6\].LATCH:D *9:11 0
207 WORD\[4\].W.B1.BIT\[6\].LATCH:D WORD\[4\].W.B1.BIT\[6\].LATCH:D 0
208 *9:12 *9:14 0
209 WORD\[5\].W.B1.BIT\[6\].LATCH:D WORD\[5\].W.B1.BIT\[6\].LATCH:D 0
210 WORD\[5\].W.B1.BIT\[6\].LATCH:D *9:15 0
211 WORD\[6\].W.B1.BIT\[6\].LATCH:D WORD\[6\].W.B1.BIT\[6\].LATCH:D 0
212 WORD\[6\].W.B1.BIT\[6\].LATCH:D *9:16 0
213 WORD\[7\].W.B1.BIT\[6\].LATCH:D WORD\[7\].W.B1.BIT\[6\].LATCH:D 0
214 WORD\[7\].W.B1.BIT\[6\].LATCH:D *9:17 0
*END

*D_NET *10 0.003649748935620001
*CONN
*P Di[15] I
*I WORD\[7\].W.B1.BIT\[7\].LATCH:D I
*I WORD\[6\].W.B1.BIT\[7\].LATCH:D I
*I WORD\[5\].W.B1.BIT\[7\].LATCH:D I
*I WORD\[4\].W.B1.BIT\[7\].LATCH:D I
*I WORD\[3\].W.B1.BIT\[7\].LATCH:D I
*I WORD\[2\].W.B1.BIT\[7\].LATCH:D I
*I WORD\[1\].W.B1.BIT\[7\].LATCH:D I
*I WORD\[0\].W.B1.BIT\[7\].LATCH:D I
*CAP
148 *10:1 0.00016946796088000002
149 *10:3 0.00168757482528
150 *10:5 0.00026215696806
151 *10:2 0.00019595053436
152 *10:7 0.00024891568132000004
153 *10:8 0.00019595053436
154 *10:9 0.00024891568132000004
155 *10:10 0.00019595053436
156 *10:11 0.00024891568132000004
157 *10:12 0.00019595053436