*SPEF "IEEE 1481-1998"
*DESIGN "RAM8"
*DATE "Wed Jun 09 05:21:43 2021"
*VENDOR "AUC CSCE Department"
*PROGRAM "SPEF Extractor"
*VERSION "1.0"
*DESIGN_FLOW "PIN_CAP NONE"
*DIVIDER /
*DELIMITER :
*BUS_DELIMITER []
*T_UNIT 1.00000 NS
*C_UNIT 1.00000 PF
*R_UNIT 1.00000 OHM
*L_UNIT 1.00000 HENRY


*NAME_MAP
*0 A[0]
*1 A[1]
*2 A[2]
*3 CLK
*4 Di[0]
*5 Di[10]
*6 Di[11]
*7 Di[12]
*8 Di[13]
*9 Di[14]
*10 Di[15]
*11 Di[16]
*12 Di[17]
*13 Di[18]
*14 Di[19]
*15 Di[1]
*16 Di[20]
*17 Di[21]
*18 Di[22]
*19 Di[23]
*20 Di[24]
*21 Di[25]
*22 Di[26]
*23 Di[27]
*24 Di[28]
*25 Di[29]
*26 Di[2]
*27 Di[30]
*28 Di[31]
*29 Di[3]
*30 Di[4]
*31 Di[5]
*32 Di[6]
*33 Di[7]
*34 Di[8]
*35 Di[9]
*36 Do[0]
*37 Do[10]
*38 Do[11]
*39 Do[12]
*40 Do[13]
*41 Do[14]
*42 Do[15]
*43 Do[16]
*44 Do[17]
*45 Do[18]
*46 Do[19]
*47 Do[1]
*48 Do[20]
*49 Do[21]
*50 Do[22]
*51 Do[23]
*52 Do[24]
*53 Do[25]
*54 Do[26]
*55 Do[27]
*56 Do[28]
*57 Do[29]
*58 Do[2]
*59 Do[30]
*60 Do[31]
*61 Do[3]
*62 Do[4]
*63 Do[5]
*64 Do[6]
*65 Do[7]
*66 Do[8]
*67 Do[9]
*68 EN
*69 WE[0]
*70 WE[1]
*71 WE[2]
*72 WE[3]
*73 DEC.A_buf\[0\]
*74 DEC.A_buf\[1\]
*75 DEC.A_buf\[2\]
*76 DEC.EN_buf
*77 WORD\[0\].W.B0.CLK
*78 WORD\[0\].W.B0.CLK_B
*79 WORD\[0\].W.B0.GCLK
*80 WORD\[0\].W.B0.SEL
*81 WORD\[0\].W.B0.SEL_B
*82 WORD\[0\].W.B0.WE
*83 WORD\[0\].W.B0.q_wire\[0\]
*84 WORD\[0\].W.B0.q_wire\[1\]
*85 WORD\[0\].W.B0.q_wire\[2\]
*86 WORD\[0\].W.B0.q_wire\[3\]
*87 WORD\[0\].W.B0.q_wire\[4\]
*88 WORD\[0\].W.B0.q_wire\[5\]
*89 WORD\[0\].W.B0.q_wire\[6\]
*90 WORD\[0\].W.B0.q_wire\[7\]
*91 WORD\[0\].W.B0.we_wire
*92 WORD\[0\].W.B1.CLK_B
*93 WORD\[0\].W.B1.GCLK
*94 WORD\[0\].W.B1.SEL_B
*95 WORD\[0\].W.B1.WE
*96 WORD\[0\].W.B1.q_wire\[0\]
*97 WORD\[0\].W.B1.q_wire\[1\]
*98 WORD\[0\].W.B1.q_wire\[2\]
*99 WORD\[0\].W.B1.q_wire\[3\]
*100 WORD\[0\].W.B1.q_wire\[4\]
*101 WORD\[0\].W.B1.q_wire\[5\]
*102 WORD\[0\].W.B1.q_wire\[6\]
*103 WORD\[0\].W.B1.q_wire\[7\]
*104 WORD\[0\].W.B1.we_wire
*105 WORD\[0\].W.B2.CLK_B
*106 WORD\[0\].W.B2.GCLK
*107 WORD\[0\].W.B2.SEL_B
*108 WORD\[0\].W.B2.WE
*109 WORD\[0\].W.B2.q_wire\[0\]
*110 WORD\[0\].W.B2.q_wire\[1\]
*111 WORD\[0\].W.B2.q_wire\[2\]
*112 WORD\[0\].W.B2.q_wire\[3\]
*113 WORD\[0\].W.B2.q_wire\[4\]
*114 WORD\[0\].W.B2.q_wire\[5\]
*115 WORD\[0\].W.B2.q_wire\[6\]
*116 WORD\[0\].W.B2.q_wire\[7\]
*117 WORD\[0\].W.B2.we_wire
*118 WORD\[0\].W.B3.CLK_B
*119 WORD\[0\].W.B3.GCLK
*120 WORD\[0\].W.B3.SEL_B
*121 WORD\[0\].W.B3.WE
*122 WORD\[0\].W.B3.q_wire\[0\]
*123 WORD\[0\].W.B3.q_wire\[1\]
*124 WORD\[0\].W.B3.q_wire\[2\]
*125 WORD\[0\].W.B3.q_wire\[3\]
*126 WORD\[0\].W.B3.q_wire\[4\]
*127 WORD\[0\].W.B3.q_wire\[5\]
*128 WORD\[0\].W.B3.q_wire\[6\]
*129 WORD\[0\].W.B3.q_wire\[7\]
*130 WORD\[0\].W.B3.we_wire
*131 WORD\[0\].W.CLK
*132 WORD\[0\].W.SEL
*133 WORD\[1\].W.B0.CLK
*134 WORD\[1\].W.B0.CLK_B
*135 WORD\[1\].W.B0.GCLK
*136 WORD\[1\].W.B0.SEL
*137 WORD\[1\].W.B0.SEL_B
*138 WORD\[1\].W.B0.q_wire\[0\]
*139 WORD\[1\].W.B0.q_wire\[1\]
*140 WORD\[1\].W.B0.q_wire\[2\]
*141 WORD\[1\].W.B0.q_wire\[3\]
*142 WORD\[1\].W.B0.q_wire\[4\]
*143 WORD\[1\].W.B0.q_wire\[5\]
*144 WORD\[1\].W.B0.q_wire\[6\]
*145 WORD\[1\].W.B0.q_wire\[7\]
*146 WORD\[1\].W.B0.we_wire
*147 WORD\[1\].W.B1.CLK_B
*148 WORD\[1\].W.B1.GCLK
*149 WORD\[1\].W.B1.SEL_B
*150 WORD\[1\].W.B1.q_wire\[0\]
*151 WORD\[1\].W.B1.q_wire\[1\]
*152 WORD\[1\].W.B1.q_wire\[2\]
*153 WORD\[1\].W.B1.q_wire\[3\]
*154 WORD\[1\].W.B1.q_wire\[4\]
*155 WORD\[1\].W.B1.q_wire\[5\]
*156 WORD\[1\].W.B1.q_wire\[6\]
*157 WORD\[1\].W.B1.q_wire\[7\]
*158 WORD\[1\].W.B1.we_wire
*159 WORD\[1\].W.B2.CLK_B
*160 WORD\[1\].W.B2.GCLK
*161 WORD\[1\].W.B2.SEL_B
*162 WORD\[1\].W.B2.q_wire\[0\]
*163 WORD\[1\].W.B2.q_wire\[1\]
*164 WORD\[1\].W.B2.q_wire\[2\]
*165 WORD\[1\].W.B2.q_wire\[3\]
*166 WORD\[1\].W.B2.q_wire\[4\]
*167 WORD\[1\].W.B2.q_wire\[5\]
*168 WORD\[1\].W.B2.q_wire\[6\]
*169 WORD\[1\].W.B2.q_wire\[7\]
*170 WORD\[1\].W.B2.we_wire
*171 WORD\[1\].W.B3.CLK_B
*172 WORD\[1\].W.B3.GCLK
*173 WORD\[1\].W.B3.SEL_B
*174 WORD\[1\].W.B3.q_wire\[0\]
*175 WORD\[1\].W.B3.q_wire\[1\]
*176 WORD\[1\].W.B3.q_wire\[2\]
*177 WORD\[1\].W.B3.q_wire\[3\]
*178 WORD\[1\].W.B3.q_wire\[4\]
*179 WORD\[1\].W.B3.q_wire\[5\]
*180 WORD\[1\].W.B3.q_wire\[6\]
*181 WORD\[1\].W.B3.q_wire\[7\]
*182 WORD\[1\].W.B3.we_wire
*183 WORD\[1\].W.SEL
*184 WORD\[2\].W.B0.CLK
*185 WORD\[2\].W.B0.CLK_B
*186 WORD\[2\].W.B0.GCLK
*187 WORD\[2\].W.B0.SEL
*188 WORD\[2\].W.B0.SEL_B
*189 WORD\[2\].W.B0.q_wire\[0\]
*190 WORD\[2\].W.B0.q_wire\[1\]
*191 WORD\[2\].W.B0.q_wire\[2\]
*192 WORD\[2\].W.B0.q_wire\[3\]
*193 WORD\[2\].W.B0.q_wire\[4\]
*194 WORD\[2\].W.B0.q_wire\[5\]
*195 WORD\[2\].W.B0.q_wire\[6\]
*196 WORD\[2\].W.B0.q_wire\[7\]
*197 WORD\[2\].W.B0.we_wire
*198 WORD\[2\].W.B1.CLK_B
*199 WORD\[2\].W.B1.GCLK
*200 WORD\[2\].W.B1.SEL_B
*201 WORD\[2\].W.B1.q_wire\[0\]
*202 WORD\[2\].W.B1.q_wire\[1\]
*203 WORD\[2\].W.B1.q_wire\[2\]
*204 WORD\[2\].W.B1.q_wire\[3\]
*205 WORD\[2\].W.B1.q_wire\[4\]
*206 WORD\[2\].W.B1.q_wire\[5\]
*207 WORD\[2\].W.B1.q_wire\[6\]
*208 WORD\[2\].W.B1.q_wire\[7\]
*209 WORD\[2\].W.B1.we_wire
*210 WORD\[2\].W.B2.CLK_B
*211 WORD\[2\].W.B2.GCLK
*212 WORD\[2\].W.B2.SEL_B
*213 WORD\[2\].W.B2.q_wire\[0\]
*214 WORD\[2\].W.B2.q_wire\[1\]
*215 WORD\[2\].W.B2.q_wire\[2\]
*216 WORD\[2\].W.B2.q_wire\[3\]
*217 WORD\[2\].W.B2.q_wire\[4\]
*218 WORD\[2\].W.B2.q_wire\[5\]
*219 WORD\[2\].W.B2.q_wire\[6\]
*220 WORD\[2\].W.B2.q_wire\[7\]
*221 WORD\[2\].W.B2.we_wire
*222 WORD\[2\].W.B3.CLK_B
*223 WORD\[2\].W.B3.GCLK
*224 WORD\[2\].W.B3.SEL_B
*225 WORD\[2\].W.B3.q_wire\[0\]
*226 WORD\[2\].W.B3.q_wire\[1\]
*227 WORD\[2\].W.B3.q_wire\[2\]
*228 WORD\[2\].W.B3.q_wire\[3\]
*229 WORD\[2\].W.B3.q_wire\[4\]
*230 WORD\[2\].W.B3.q_wire\[5\]
*231 WORD\[2\].W.B3.q_wire\[6\]
*232 WORD\[2\].W.B3.q_wire\[7\]
*233 WORD\[2\].W.B3.we_wire
*234 WORD\[2\].W.SEL
*235 WORD\[3\].W.B0.CLK
*236 WORD\[3\].W.B0.CLK_B
*237 WORD\[3\].W.B0.GCLK
*238 WORD\[3\].W.B0.SEL
*239 WORD\[3\].W.B0.SEL_B
*240 WORD\[3\].W.B0.q_wire\[0\]
*241 WORD\[3\].W.B0.q_wire\[1\]
*242 WORD\[3\].W.B0.q_wire\[2\]
*243 WORD\[3\].W.B0.q_wire\[3\]
*244 WORD\[3\].W.B0.q_wire\[4\]
*245 WORD\[3\].W.B0.q_wire\[5\]
*246 WORD\[3\].W.B0.q_wire\[6\]
*247 WORD\[3\].W.B0.q_wire\[7\]
*248 WORD\[3\].W.B0.we_wire
*249 WORD\[3\].W.B1.CLK_B
*250 WORD\[3\].W.B1.GCLK
*251 WORD\[3\].W.B1.SEL_B
*252 WORD\[3\].W.B1.q_wire\[0\]
*253 WORD\[3\].W.B1.q_wire\[1\]
*254 WORD\[3\].W.B1.q_wire\[2\]
*255 WORD\[3\].W.B1.q_wire\[3\]
*256 WORD\[3\].W.B1.q_wire\[4\]
*257 WORD\[3\].W.B1.q_wire\[5\]
*258 WORD\[3\].W.B1.q_wire\[6\]
*259 WORD\[3\].W.B1.q_wire\[7\]
*260 WORD\[3\].W.B1.we_wire
*261 WORD\[3\].W.B2.CLK_B
*262 WORD\[3\].W.B2.GCLK
*263 WORD\[3\].W.B2.SEL_B
*264 WORD\[3\].W.B2.q_wire\[0\]
*265 WORD\[3\].W.B2.q_wire\[1\]
*266 WORD\[3\].W.B2.q_wire\[2\]
*267 WORD\[3\].W.B2.q_wire\[3\]
*268 WORD\[3\].W.B2.q_wire\[4\]
*269 WORD\[3\].W.B2.q_wire\[5\]
*270 WORD\[3\].W.B2.q_wire\[6\]
*271 WORD\[3\].W.B2.q_wire\[7\]
*272 WORD\[3\].W.B2.we_wire
*273 WORD\[3\].W.B3.CLK_B
*274 WORD\[3\].W.B3.GCLK
*275 WORD\[3\].W.B3.SEL_B
*276 WORD\[3\].W.B3.q_wire\[0\]
*277 WORD\[3\].W.B3.q_wire\[1\]
*278 WORD\[3\].W.B3.q_wire\[2\]
*279 WORD\[3\].W.B3.q_wire\[3\]
*280 WORD\[3\].W.B3.q_wire\[4\]
*281 WORD\[3\].W.B3.q_wire\[5\]
*282 WORD\[3\].W.B3.q_wire\[6\]
*283 WORD\[3\].W.B3.q_wire\[7\]
*284 WORD\[3\].W.B3.we_wire
*285 WORD\[3\].W.SEL
*286 WORD\[4\].W.B0.CLK
*287 WORD\[4\].W.B0.CLK_B
*288 WORD\[4\].W.B0.GCLK
*289 WORD\[4\].W.B0.SEL
*290 WORD\[4\].W.B0.SEL_B
*291 WORD\[4\].W.B0.q_wire\[0\]
*292 WORD\[4\].W.B0.q_wire\[1\]
*293 WORD\[4\].W.B0.q_wire\[2\]
*294 WORD\[4\].W.B0.q_wire\[3\]
*295 WORD\[4\].W.B0.q_wire\[4\]
*296 WORD\[4\].W.B0.q_wire\[5\]
*297 WORD\[4\].W.B0.q_wire\[6\]
*298 WORD\[4\].W.B0.q_wire\[7\]
*299 WORD\[4\].W.B0.we_wire
*300 WORD\[4\].W.B1.CLK_B
*301 WORD\[4\].W.B1.GCLK
*302 WORD\[4\].W.B1.SEL_B
*303 WORD\[4\].W.B1.q_wire\[0\]
*304 WORD\[4\].W.B1.q_wire\[1\]
*305 WORD\[4\].W.B1.q_wire\[2\]
*306 WORD\[4\].W.B1.q_wire\[3\]
*307 WORD\[4\].W.B1.q_wire\[4\]
*308 WORD\[4\].W.B1.q_wire\[5\]
*309 WORD\[4\].W.B1.q_wire\[6\]
*310 WORD\[4\].W.B1.q_wire\[7\]
*311 WORD\[4\].W.B1.we_wire
*312 WORD\[4\].W.B2.CLK_B
*313 WORD\[4\].W.B2.GCLK
*314 WORD\[4\].W.B2.SEL_B
*315 WORD\[4\].W.B2.q_wire\[0\]
*316 WORD\[4\].W.B2.q_wire\[1\]
*317 WORD\[4\].W.B2.q_wire\[2\]
*318 WORD\[4\].W.B2.q_wire\[3\]
*319 WORD\[4\].W.B2.q_wire\[4\]
*320 WORD\[4\].W.B2.q_wire\[5\]
*321 WORD\[4\].W.B2.q_wire\[6\]
*322 WORD\[4\].W.B2.q_wire\[7\]
*323 WORD\[4\].W.B2.we_wire
*324 WORD\[4\].W.B3.CLK_B
*325 WORD\[4\].W.B3.GCLK
*326 WORD\[4\].W.B3.SEL_B
*327 WORD\[4\].W.B3.q_wire\[0\]
*328 WORD\[4\].W.B3.q_wire\[1\]
*329 WORD\[4\].W.B3.q_wire\[2\]
*330 WORD\[4\].W.B3.q_wire\[3\]
*331 WORD\[4\].W.B3.q_wire\[4\]
*332 WORD\[4\].W.B3.q_wire\[5\]
*333 WORD\[4\].W.B3.q_wire\[6\]
*334 WORD\[4\].W.B3.q_wire\[7\]
*335 WORD\[4\].W.B3.we_wire
*336 WORD\[4\].W.SEL
*337 WORD\[5\].W.B0.CLK
*338 WORD\[5\].W.B0.CLK_B
*339 WORD\[5\].W.B0.GCLK
*340 WORD\[5\].W.B0.SEL
*341 WORD\[5\].W.B0.SEL_B
*342 WORD\[5\].W.B0.q_wire\[0\]
*343 WORD\[5\].W.B0.q_wire\[1\]
*344 WORD\[5\].W.B0.q_wire\[2\]
*345 WORD\[5\].W.B0.q_wire\[3\]
*346 WORD\[5\].W.B0.q_wire\[4\]
*347 WORD\[5\].W.B0.q_wire\[5\]
*348 WORD\[5\].W.B0.q_wire\[6\]
*349 WORD\[5\].W.B0.q_wire\[7\]
*350 WORD\[5\].W.B0.we_wire
*351 WORD\[5\].W.B1.CLK_B
*352 WORD\[5\].W.B1.GCLK
*353 WORD\[5\].W.B1.SEL_B
*354 WORD\[5\].W.B1.q_wire\[0\]
*355 WORD\[5\].W.B1.q_wire\[1\]
*356 WORD\[5\].W.B1.q_wire\[2\]
*357 WORD\[5\].W.B1.q_wire\[3\]
*358 WORD\[5\].W.B1.q_wire\[4\]
*359 WORD\[5\].W.B1.q_wire\[5\]
*360 WORD\[5\].W.B1.q_wire\[6\]
*361 WORD\[5\].W.B1.q_wire\[7\]
*362 WORD\[5\].W.B1.we_wire
*363 WORD\[5\].W.B2.CLK_B
*364 WORD\[5\].W.B2.GCLK
*365 WORD\[5\].W.B2.SEL_B
*366 WORD\[5\].W.B2.q_wire\[0\]
*367 WORD\[5\].W.B2.q_wire\[1\]
*368 WORD\[5\].W.B2.q_wire\[2\]
*369 WORD\[5\].W.B2.q_wire\[3\]
*370 WORD\[5\].W.B2.q_wire\[4\]
*371 WORD\[5\].W.B2.q_wire\[5\]
*372 WORD\[5\].W.B2.q_wire\[6\]
*373 WORD\[5\].W.B2.q_wire\[7\]
*374 WORD\[5\].W.B2.we_wire
*375 WORD\[5\].W.B3.CLK_B
*376 WORD\[5\].W.B3.GCLK
*377 WORD\[5\].W.B3.SEL_B
*378 WORD\[5\].W.B3.q_wire\[0\]
*379 WORD\[5\].W.B3.q_wire\[1\]
*380 WORD\[5\].W.B3.q_wire\[2\]
*381 WORD\[5\].W.B3.q_wire\[3\]
*382 WORD\[5\].W.B3.q_wire\[4\]
*383 WORD\[5\].W.B3.q_wire\[5\]
*384 WORD\[5\].W.B3.q_wire\[6\]
*385 WORD\[5\].W.B3.q_wire\[7\]
*386 WORD\[5\].W.B3.we_wire
*387 WORD\[5\].W.SEL
*388 WORD\[6\].W.B0.CLK
*389 WORD\[6\].W.B0.CLK_B
*390 WORD\[6\].W.B0.GCLK
*391 WORD\[6\].W.B0.SEL
*392 WORD\[6\].W.B0.SEL_B
*393 WORD\[6\].W.B0.q_wire\[0\]
*394 WORD\[6\].W.B0.q_wire\[1\]
*395 WORD\[6\].W.B0.q_wire\[2\]
*396 WORD\[6\].W.B0.q_wire\[3\]
*397 WORD\[6\].W.B0.q_wire\[4\]
*398 WORD\[6\].W.B0.q_wire\[5\]
*399 WORD\[6\].W.B0.q_wire\[6\]
*400 WORD\[6\].W.B0.q_wire\[7\]
*401 WORD\[6\].W.B0.we_wire
*402 WORD\[6\].W.B1.CLK_B
*403 WORD\[6\].W.B1.GCLK
*404 WORD\[6\].W.B1.SEL_B
*405 WORD\[6\].W.B1.q_wire\[0\]
*406 WORD\[6\].W.B1.q_wire\[1\]
*407 WORD\[6\].W.B1.q_wire\[2\]
*408 WORD\[6\].W.B1.q_wire\[3\]
*409 WORD\[6\].W.B1.q_wire\[4\]
*410 WORD\[6\].W.B1.q_wire\[5\]
*411 WORD\[6\].W.B1.q_wire\[6\]
*412 WORD\[6\].W.B1.q_wire\[7\]
*413 WORD\[6\].W.B1.we_wire
*414 WORD\[6\].W.B2.CLK_B
*415 WORD\[6\].W.B2.GCLK
*416 WORD\[6\].W.B2.SEL_B
*417 WORD\[6\].W.B2.q_wire\[0\]
*418 WORD\[6\].W.B2.q_wire\[1\]
*419 WORD\[6\].W.B2.q_wire\[2\]
*420 WORD\[6\].W.B2.q_wire\[3\]
*421 WORD\[6\].W.B2.q_wire\[4\]
*422 WORD\[6\].W.B2.q_wire\[5\]
*423 WORD\[6\].W.B2.q_wire\[6\]
*424 WORD\[6\].W.B2.q_wire\[7\]
*425 WORD\[6\].W.B2.we_wire
*426 WORD\[6\].W.B3.CLK_B
*427 WORD\[6\].W.B3.GCLK
*428 WORD\[6\].W.B3.SEL_B
*429 WORD\[6\].W.B3.q_wire\[0\]
*430 WORD\[6\].W.B3.q_wire\[1\]
*431 WORD\[6\].W.B3.q_wire\[2\]
*432 WORD\[6\].W.B3.q_wire\[3\]
*433 WORD\[6\].W.B3.q_wire\[4\]
*434 WORD\[6\].W.B3.q_wire\[5\]
*435 WORD\[6\].W.B3.q_wire\[6\]
*436 WORD\[6\].W.B3.q_wire\[7\]
*437 WORD\[6\].W.B3.we_wire
*438 WORD\[6\].W.SEL
*439 WORD\[7\].W.B0.CLK
*440 WORD\[7\].W.B0.CLK_B
*441 WORD\[7\].W.B0.GCLK
*442 WORD\[7\].W.B0.SEL
*443 WORD\[7\].W.B0.SEL_B
*444 WORD\[7\].W.B0.q_wire\[0\]
*445 WORD\[7\].W.B0.q_wire\[1\]
*446 WORD\[7\].W.B0.q_wire\[2\]
*447 WORD\[7\].W.B0.q_wire\[3\]
*448 WORD\[7\].W.B0.q_wire\[4\]
*449 WORD\[7\].W.B0.q_wire\[5\]
*450 WORD\[7\].W.B0.q_wire\[6\]
*451 WORD\[7\].W.B0.q_wire\[7\]
*452 WORD\[7\].W.B0.we_wire
*453 WORD\[7\].W.B1.CLK_B
*454 WORD\[7\].W.B1.GCLK
*455 WORD\[7\].W.B1.SEL_B
*456 WORD\[7\].W.B1.q_wire\[0\]
*457 WORD\[7\].W.B1.q_wire\[1\]
*458 WORD\[7\].W.B1.q_wire\[2\]
*459 WORD\[7\].W.B1.q_wire\[3\]
*460 WORD\[7\].W.B1.q_wire\[4\]
*461 WORD\[7\].W.B1.q_wire\[5\]
*462 WORD\[7\].W.B1.q_wire\[6\]
*463 WORD\[7\].W.B1.q_wire\[7\]
*464 WORD\[7\].W.B1.we_wire
*465 WORD\[7\].W.B2.CLK_B
*466 WORD\[7\].W.B2.GCLK
*467 WORD\[7\].W.B2.SEL_B
*468 WORD\[7\].W.B2.q_wire\[0\]
*469 WORD\[7\].W.B2.q_wire\[1\]
*470 WORD\[7\].W.B2.q_wire\[2\]
*471 WORD\[7\].W.B2.q_wire\[3\]
*472 WORD\[7\].W.B2.q_wire\[4\]
*473 WORD\[7\].W.B2.q_wire\[5\]
*474 WORD\[7\].W.B2.q_wire\[6\]
*475 WORD\[7\].W.B2.q_wire\[7\]
*476 WORD\[7\].W.B2.we_wire
*477 WORD\[7\].W.B3.CLK_B
*478 WORD\[7\].W.B3.GCLK
*479 WORD\[7\].W.B3.SEL_B
*480 WORD\[7\].W.B3.q_wire\[0\]
*481 WORD\[7\].W.B3.q_wire\[1\]
*482 WORD\[7\].W.B3.q_wire\[2\]
*483 WORD\[7\].W.B3.q_wire\[3\]
*484 WORD\[7\].W.B3.q_wire\[4\]
*485 WORD\[7\].W.B3.q_wire\[5\]
*486 WORD\[7\].W.B3.q_wire\[6\]
*487 WORD\[7\].W.B3.q_wire\[7\]
*488 WORD\[7\].W.B3.we_wire
*489 WORD\[7\].W.SEL

*D_NET *0 0.00153330090468
*CONN
*P A[0] I
*I DEC.ABUF\[0\]:A I
*CAP
0 *0:1 0.0006355621730999999
1 *0:3 0.0008977387315800001
2 DEC.ABUF\[0\]:A 0
3 *0:4 0
*RES
0 *0:1 *0:2 1.1170333333333335
1 *0:3 *0:4 10.169642857142856
2 DEC.ABUF\[0\]:A DEC.ABUF\[0\]:A 0
3 DEC.ABUF\[0\]:A *0:3 0
4 *0:4 *0:1 0
*END

*D_NET *1 0.00178195421472
*CONN
*P A[1] I
*I DEC.ABUF\[1\]:A I
*CAP
4 DEC.ABUF\[1\]:A 5.034052896000001e-05
5 *1:2 0.0006749795133
6 *1:4 0.00105663417246
7 *1:1 0
8 *1:5 0
*RES
5 DEC.ABUF\[1\]:A *1:1 0.4107142857142857
6 *1:2 *1:3 1.1891
7 *1:4 *1:5 11.991071428571427
8 *1:1 *1:4 0
9 DEC.ABUF\[1\]:A DEC.ABUF\[1\]:A 0
10 *1:5 *1:2 0
*END

*D_NET *2 0.0018239961729200002
*CONN
*P A[2] I
*I DEC.ABUF\[2\]:A I
*CAP
9 *2:1 0.0007143968535
10 *2:3 0.0011095993194200002
11 DEC.ABUF\[2\]:A 0
12 *2:4 0
*RES
11 *2:1 *2:2 1.2611666666666668
12 *2:3 *2:4 12.598214285714285
13 DEC.ABUF\[2\]:A DEC.ABUF\[2\]:A 0
14 DEC.ABUF\[2\]:A *2:3 0
15 *2:4 *2:1 0
*END

*D_NET *3 0.03295023326604
*CONN
*P CLK I
*I CLKBUF:A I
*CAP
13 *3:1 2.3813806740000006e-05
14 *3:3 0.0010888615854
15 *3:4 0.0001411316232
16 *3:5 0.031696426250699995
17 *3:2 0
18 CLKBUF:A 0
*RES
16 *3:1 *3:2 0.15178571428571427
17 *3:3 *3:4 1.9458000000000002
18 *3:4 *3:5 0.21306666666666668
19 *3:5 *3:6 57.90556666666667
20 *3:2 *3:6 0
21 CLKBUF:A CLKBUF:A 0
22 CLKBUF:A *3:1 0
*END

*D_NET *4 0.0023982130799400005
*CONN
*P Di[0] I
*I WORD\[7\].W.B0.BIT\[0\].LATCH:D I
*I WORD\[6\].W.B0.BIT\[0\].LATCH:D I
*I WORD\[5\].W.B0.BIT\[0\].LATCH:D I
*I WORD\[4\].W.B0.BIT\[0\].LATCH:D I
*I WORD\[3\].W.B0.BIT\[0\].LATCH:D I
*I WORD\[2\].W.B0.BIT\[0\].LATCH:D I
*I WORD\[1\].W.B0.BIT\[0\].LATCH:D I
*I WORD\[0\].W.B0.BIT\[0\].LATCH:D I
*CAP
19 *4:1 0.00024524937376
20 *4:2 0.00042105240893999997
21 *4:4 0.00019595053436
22 WORD\[0\].W.B0.BIT\[0\].LATCH:D 5.034052896000001e-05
23 WORD\[2\].W.B0.BIT\[0\].LATCH:D 5.034052896000001e-05
24 *4:5 0.00024891568132000004
25 *4:8 0.00019595053436
26 WORD\[4\].W.B0.BIT\[0\].LATCH:D 5.034052896000001e-05
27 *4:9 0.00024891568132000004
28 *4:11 0.00019595053436
29 WORD\[6\].W.B0.BIT\[0\].LATCH:D 5.034052896000001e-05
30 *4:12 0.00024891568132000004
31 *4:14 0.00019595053436
32 WORD\[1\].W.B0.BIT\[0\].LATCH:D 0
33 *4:6 0
34 *4:7 0
35 WORD\[3\].W.B0.BIT\[0\].LATCH:D 0
36 *4:10 0
37 WORD\[5\].W.B0.BIT\[0\].LATCH:D 0
38 *4:13 0
39 WORD\[7\].W.B0.BIT\[0\].LATCH:D 0
*RES
23 *4:1 WORD\[0\].W.B0.BIT\[0\].LATCH:D 2.464285714285714
24 *4:2 *4:3 4.705357142857142
25 *4:4 *4:5 2.1249999999999996
26 WORD\[0\].W.B0.BIT\[0\].LATCH:D *4:6 0.4107142857142857
27 WORD\[2\].W.B0.BIT\[0\].LATCH:D *4:7 0.4107142857142857
28 *4:5 *4:8 2.7321428571428568
29 *4:8 *4:9 2.1249999999999996
30 WORD\[4\].W.B0.BIT\[0\].LATCH:D *4:10 0.4107142857142857
31 *4:9 *4:11 2.7321428571428568
32 *4:11 *4:12 2.1249999999999996
33 WORD\[6\].W.B0.BIT\[0\].LATCH:D *4:13 0.4107142857142857
34 *4:12 *4:14 2.7321428571428568
35 *4:14 *4:15 2.1249999999999996
36 WORD\[0\].W.B0.BIT\[0\].LATCH:D WORD\[0\].W.B0.BIT\[0\].LATCH:D 0
37 *4:1 *4:3 0
38 WORD\[1\].W.B0.BIT\[0\].LATCH:D WORD\[1\].W.B0.BIT\[0\].LATCH:D 0
39 WORD\[1\].W.B0.BIT\[0\].LATCH:D *4:5 0
40 *4:6 *4:4 0
41 WORD\[2\].W.B0.BIT\[0\].LATCH:D WORD\[2\].W.B0.BIT\[0\].LATCH:D 0
42 *4:7 *4:8 0
43 WORD\[3\].W.B0.BIT\[0\].LATCH:D WORD\[3\].W.B0.BIT\[0\].LATCH:D 0
44 WORD\[3\].W.B0.BIT\[0\].LATCH:D *4:9 0
45 WORD\[4\].W.B0.BIT\[0\].LATCH:D WORD\[4\].W.B0.BIT\[0\].LATCH:D 0
46 *4:10 *4:11 0
47 WORD\[5\].W.B0.BIT\[0\].LATCH:D WORD\[5\].W.B0.BIT\[0\].LATCH:D 0
48 WORD\[5\].W.B0.BIT\[0\].LATCH:D *4:12 0
49 WORD\[6\].W.B0.BIT\[0\].LATCH:D WORD\[6\].W.B0.BIT\[0\].LATCH:D 0
50 *4:13 *4:14 0
51 WORD\[7\].W.B0.BIT\[0\].LATCH:D WORD\[7\].W.B0.BIT\[0\].LATCH:D 0
52 WORD\[7\].W.B0.BIT\[0\].LATCH:D *4:15 0
*END

*D_NET *5 0.0031385389582800002
*CONN
*P Di[10] I
*I WORD\[7\].W.B1.BIT\[2\].LATCH:D I
*I WORD\[6\].W.B1.BIT\[2\].LATCH:D I
*I WORD\[5\].W.B1.BIT\[2\].LATCH:D I
*I WORD\[4\].W.B1.BIT\[2\].LATCH:D I
*I WORD\[3\].W.B1.BIT\[2\].LATCH:D I
*I WORD\[2\].W.B1.BIT\[2\].LATCH:D I
*I WORD\[1\].W.B1.BIT\[2\].LATCH:D I
*I WORD\[0\].W.B1.BIT\[2\].LATCH:D I
*CAP
40 WORD\[0\].W.B1.BIT\[2\].LATCH:D 0.00016728583584
41 *5:2 2.3813806740000006e-05
42 *5:3 0.00022911113174000004
43 *5:5 0.00018270924762000003
44 *5:6 0.00055710352544
45 *5:8 0.00026215696806
46 WORD\[1\].W.B1.BIT\[2\].LATCH:D 0.00012830406688
47 WORD\[2\].W.B1.BIT\[2\].LATCH:D 0.00016728583584
48 *5:11 0.00024891568132000004
49 *5:14 0.00043429369568000003
50 WORD\[6\].W.B1.BIT\[2\].LATCH:D 5.034052896000001e-05
51 *5:15 0.00024891568132000004
52 *5:17 0.00019595053436
53 *5:19 4.640188412000001e-05
54 *5:21 0.00019595053436
55 *5:1 0
56 *5:7 0
57 *5:10 0
58 *5:12 0
59 *5:22 0
60 WORD\[3\].W.B1.BIT\[2\].LATCH:D 0
61 WORD\[5\].W.B1.BIT\[2\].LATCH:D 0
62 *5:16 0
63 WORD\[7\].W.B1.BIT\[2\].LATCH:D 0
64 WORD\[4\].W.B1.BIT\[2\].LATCH:D 0
*RES
53 WORD\[0\].W.B1.BIT\[2\].LATCH:D *5:1 1.6428571428571428
54 *5:2 *5:3 0.15178571428571427
55 *5:3 *5:4 0.4107142857142857
56 *5:5 *5:4 1.9732142857142856
57 *5:6 *5:7 5.75
58 *5:8 *5:9 2.883928571428571
59 WORD\[1\].W.B1.BIT\[2\].LATCH:D *5:10 1.232142857142857
60 *5:3 *5:11 1.9732142857142856
61 WORD\[2\].W.B1.BIT\[2\].LATCH:D *5:12 1.6428571428571428
62 *5:11 *5:13 2.7321428571428568
63 *5:14 *5:15 4.857142857142857
64 WORD\[6\].W.B1.BIT\[2\].LATCH:D *5:16 0.4107142857142857
65 *5:15 *5:17 2.7321428571428568
66 *5:17 *5:18 2.1249999999999996
67 *5:19 *5:20 0.4107142857142857
68 *5:21 *5:14 2.1249999999999996
69 WORD\[0\].W.B1.BIT\[2\].LATCH:D WORD\[0\].W.B1.BIT\[2\].LATCH:D 0
70 *5:1 *5:2 0
71 *5:6 *5:5 0
72 *5:7 *5:9 0
73 WORD\[1\].W.B1.BIT\[2\].LATCH:D WORD\[1\].W.B1.BIT\[2\].LATCH:D 0
74 *5:10 *5:11 0
75 WORD\[2\].W.B1.BIT\[2\].LATCH:D WORD\[2\].W.B1.BIT\[2\].LATCH:D 0
76 *5:12 *5:13 0
77 *5:22 *5:21 0
78 WORD\[3\].W.B1.BIT\[2\].LATCH:D WORD\[3\].W.B1.BIT\[2\].LATCH:D 0
79 WORD\[3\].W.B1.BIT\[2\].LATCH:D *5:14 0
80 WORD\[5\].W.B1.BIT\[2\].LATCH:D WORD\[5\].W.B1.BIT\[2\].LATCH:D 0
81 WORD\[5\].W.B1.BIT\[2\].LATCH:D *5:15 0
82 WORD\[6\].W.B1.BIT\[2\].LATCH:D WORD\[6\].W.B1.BIT\[2\].LATCH:D 0
83 *5:16 *5:17 0
84 WORD\[7\].W.B1.BIT\[2\].LATCH:D WORD\[7\].W.B1.BIT\[2\].LATCH:D 0
85 WORD\[7\].W.B1.BIT\[2\].LATCH:D *5:18 0
86 WORD\[4\].W.B1.BIT\[2\].LATCH:D WORD\[4\].W.B1.BIT\[2\].LATCH:D 0
87 WORD\[4\].W.B1.BIT\[2\].LATCH:D *5:19 0
*END

*D_NET *6 0.0038098836948200015
*CONN
*P Di[11] I
*I WORD\[7\].W.B1.BIT\[3\].LATCH:D I
*I WORD\[6\].W.B1.BIT\[3\].LATCH:D I
*I WORD\[5\].W.B1.BIT\[3\].LATCH:D I
*I WORD\[4\].W.B1.BIT\[3\].LATCH:D I
*I WORD\[3\].W.B1.BIT\[3\].LATCH:D I
*I WORD\[2\].W.B1.BIT\[3\].LATCH:D I
*I WORD\[1\].W.B1.BIT\[3\].LATCH:D I
*I WORD\[0\].W.B1.BIT\[3\].LATCH:D I
*CAP
65 WORD\[0\].W.B1.BIT\[3\].LATCH:D 0.00012830406688
66 *6:2 0.00022243310784000002
67 *6:4 0.00082997590816
68 *6:6 0.00020919182110000001
69 *6:8 0.00019595053436
70 WORD\[2\].W.B1.BIT\[3\].LATCH:D 0.00012830406688
71 *6:3 0.00043429369568000003
72 *6:12 0.00019595053436
73 WORD\[4\].W.B1.BIT\[3\].LATCH:D 0.00012830406688
74 *6:11 0.00043429369568000003
75 *6:16 0.00012949366976
76 *6:15 0.00016946796088000002
77 WORD\[6\].W.B1.BIT\[3\].LATCH:D 5.034052896000001e-05
78 *6:20 0.0002781817826
79 *6:18 0.0002753982548
80 *6:1 0
81 *6:5 0
82 WORD\[1\].W.B1.BIT\[3\].LATCH:D 0
83 *6:23 0
84 *6:10 0
85 WORD\[3\].W.B1.BIT\[3\].LATCH:D 0
86 *6:24 0
87 *6:14 0
88 WORD\[5\].W.B1.BIT\[3\].LATCH:D 0
89 *6:17 0
90 *6:19 0
91 WORD\[7\].W.B1.BIT\[3\].LATCH:D 0
*RES
88 WORD\[0\].W.B1.BIT\[3\].LATCH:D *6:1 1.232142857142857
89 *6:2 *6:3 2.4285714285714284
90 *6:4 *6:5 8.625
91 *6:6 *6:7 2.276785714285714
92 *6:8 *6:9 2.1249999999999996
93 WORD\[2\].W.B1.BIT\[3\].LATCH:D *6:10 1.232142857142857
94 *6:3 *6:11 4.857142857142857
95 *6:12 *6:13 2.1249999999999996
96 WORD\[4\].W.B1.BIT\[3\].LATCH:D *6:14 1.232142857142857
97 *6:11 *6:15 4.857142857142857
98 *6:16 WORD\[5\].W.B1.BIT\[3\].LATCH:D 0.30357142857142855
99 *6:16 *6:17 0.8214285714285714
100 *6:15 *6:18 1.8214285714285714
101 WORD\[6\].W.B1.BIT\[3\].LATCH:D *6:19 0.4107142857142857
102 *6:20 *6:21 0.8214285714285714
103 *6:18 *6:21 3.035714285714285
104 *6:20 *6:22 2.1249999999999996
105 WORD\[0\].W.B1.BIT\[3\].LATCH:D WORD\[0\].W.B1.BIT\[3\].LATCH:D 0
106 *6:1 *6:3 0
107 *6:4 *6:2 0
108 *6:5 *6:7 0
109 WORD\[1\].W.B1.BIT\[3\].LATCH:D WORD\[1\].W.B1.BIT\[3\].LATCH:D 0
110 WORD\[1\].W.B1.BIT\[3\].LATCH:D *6:9 0
111 *6:23 *6:8 0
112 WORD\[2\].W.B1.BIT\[3\].LATCH:D WORD\[2\].W.B1.BIT\[3\].LATCH:D 0
113 *6:10 *6:11 0
114 WORD\[3\].W.B1.BIT\[3\].LATCH:D WORD\[3\].W.B1.BIT\[3\].LATCH:D 0
115 WORD\[3\].W.B1.BIT\[3\].LATCH:D *6:13 0
116 *6:24 *6:12 0
117 WORD\[4\].W.B1.BIT\[3\].LATCH:D WORD\[4\].W.B1.BIT\[3\].LATCH:D 0
118 *6:14 *6:15 0
119 WORD\[5\].W.B1.BIT\[3\].LATCH:D WORD\[5\].W.B1.BIT\[3\].LATCH:D 0
120 *6:17 *6:18 0
121 WORD\[6\].W.B1.BIT\[3\].LATCH:D WORD\[6\].W.B1.BIT\[3\].LATCH:D 0
122 *6:19 *6:20 0
123 WORD\[7\].W.B1.BIT\[3\].LATCH:D WORD\[7\].W.B1.BIT\[3\].LATCH:D 0
124 WORD\[7\].W.B1.BIT\[3\].LATCH:D *6:22 0
*END

*D_NET *7 0.003334112504220001
*CONN
*P Di[12] I
*I WORD\[7\].W.B1.BIT\[4\].LATCH:D I
*I WORD\[6\].W.B1.BIT\[4\].LATCH:D I
*I WORD\[5\].W.B1.BIT\[4\].LATCH:D I
*I WORD\[4\].W.B1.BIT\[4\].LATCH:D I
*I WORD\[3\].W.B1.BIT\[4\].LATCH:D I
*I WORD\[2\].W.B1.BIT\[4\].LATCH:D I
*I WORD\[1\].W.B1.BIT\[4\].LATCH:D I
*I WORD\[0\].W.B1.BIT\[4\].LATCH:D I
*CAP
92 WORD\[0\].W.B1.BIT\[4\].LATCH:D 0.0002062676048
93 *7:2 2.3813806740000006e-05
94 *7:4 0.0009311922246
95 *7:6 9.669826434000002e-05
96 *7:9 0.00039456983545999995
97 *7:10 0.00019595053436
98 WORD\[2\].W.B1.BIT\[4\].LATCH:D 5.034052896000001e-05
99 *7:11 0.00024891568132000004
100 WORD\[4\].W.B1.BIT\[4\].LATCH:D 5.034052896000001e-05
101 *7:15 0.00024891568132000004
102 *7:16 0.00019595053436
103 WORD\[6\].W.B1.BIT\[4\].LATCH:D 5.034052896000001e-05
104 *7:17 0.00024891568132000004
105 *7:19 0.00019595053436
106 *7:13 0.00019595053436
107 *7:1 0
108 *7:3 0
109 *7:7 0
110 WORD\[1\].W.B1.BIT\[4\].LATCH:D 0
111 *7:21 0
112 *7:12 0
113 WORD\[3\].W.B1.BIT\[4\].LATCH:D 0
114 *7:14 0
115 WORD\[5\].W.B1.BIT\[4\].LATCH:D 0
116 *7:18 0
117 WORD\[7\].W.B1.BIT\[4\].LATCH:D 0
*RES
125 WORD\[0\].W.B1.BIT\[4\].LATCH:D *7:1 2.0535714285714284
126 *7:2 *7:3 0.15178571428571427
127 *7:4 *7:5 1.6575333333333333
128 *7:6 *7:7 0.45535714285714285
129 *7:6 *7:8 0.4107142857142857
130 *7:9 *7:8 4.4017857142857135
131 *7:10 *7:11 2.1249999999999996
132 WORD\[2\].W.B1.BIT\[4\].LATCH:D *7:12 0.4107142857142857
133 *7:11 *7:13 2.7321428571428568
134 WORD\[4\].W.B1.BIT\[4\].LATCH:D *7:14 0.4107142857142857
135 *7:15 *7:16 2.7321428571428568
136 *7:16 *7:17 2.1249999999999996
137 WORD\[6\].W.B1.BIT\[4\].LATCH:D *7:18 0.4107142857142857
138 *7:17 *7:19 2.7321428571428568
139 *7:19 *7:20 2.1249999999999996
140 *7:13 *7:15 2.1249999999999996
141 WORD\[0\].W.B1.BIT\[4\].LATCH:D WORD\[0\].W.B1.BIT\[4\].LATCH:D 0
142 *7:1 *7:2 0
143 *7:3 *7:4 0
144 *7:7 *7:5 0
145 WORD\[1\].W.B1.BIT\[4\].LATCH:D WORD\[1\].W.B1.BIT\[4\].LATCH:D 0
146 WORD\[1\].W.B1.BIT\[4\].LATCH:D *7:11 0
147 *7:21 *7:10 0
148 WORD\[2\].W.B1.BIT\[4\].LATCH:D WORD\[2\].W.B1.BIT\[4\].LATCH:D 0
149 *7:12 *7:13 0
150 WORD\[3\].W.B1.BIT\[4\].LATCH:D WORD\[3\].W.B1.BIT\[4\].LATCH:D 0
151 WORD\[3\].W.B1.BIT\[4\].LATCH:D *7:15 0
152 WORD\[4\].W.B1.BIT\[4\].LATCH:D WORD\[4\].W.B1.BIT\[4\].LATCH:D 0
153 *7:14 *7:16 0
154 WORD\[5\].W.B1.BIT\[4\].LATCH:D WORD\[5\].W.B1.BIT\[4\].LATCH:D 0
155 WORD\[5\].W.B1.BIT\[4\].LATCH:D *7:17 0
156 WORD\[6\].W.B1.BIT\[4\].LATCH:D WORD\[6\].W.B1.BIT\[4\].LATCH:D 0
157 *7:18 *7:19 0
158 WORD\[7\].W.B1.BIT\[4\].LATCH:D WORD\[7\].W.B1.BIT\[4\].LATCH:D 0
159 WORD\[7\].W.B1.BIT\[4\].LATCH:D *7:20 0
*END

*D_NET *8 0.003512335427580001
*CONN
*P Di[13] I
*I WORD\[7\].W.B1.BIT\[5\].LATCH:D I
*I WORD\[6\].W.B1.BIT\[5\].LATCH:D I
*I WORD\[5\].W.B1.BIT\[5\].LATCH:D I
*I WORD\[4\].W.B1.BIT\[5\].LATCH:D I
*I WORD\[3\].W.B1.BIT\[5\].LATCH:D I
*I WORD\[2\].W.B1.BIT\[5\].LATCH:D I
*I WORD\[1\].W.B1.BIT\[5\].LATCH:D I
*I WORD\[0\].W.B1.BIT\[5\].LATCH:D I
*CAP
118 *8:1 0.00043429369568000003
119 WORD\[0\].W.B1.BIT\[5\].LATCH:D 0.00032321291168
120 *8:4 2.3813806740000006e-05
121 *8:6 0.00019595053436
122 WORD\[2\].W.B1.BIT\[5\].LATCH:D 5.034052896000001e-05
123 *8:7 0.00024891568132000004
124 *8:10 0.0010494442452000001
125 WORD\[4\].W.B1.BIT\[5\].LATCH:D 5.034052896000001e-05
126 *8:13 0.00024891568132000004
127 *8:14 0.00019595053436
128 WORD\[6\].W.B1.BIT\[5\].LATCH:D 5.034052896000001e-05
129 *8:15 0.00024891568132000004
130 *8:17 0.00019595053436
131 *8:9 0.00019595053436
132 *8:2 0
133 *8:3 0
134 *8:5 0
135 WORD\[1\].W.B1.BIT\[5\].LATCH:D 0
136 *8:19 0
137 *8:8 0
138 WORD\[3\].W.B1.BIT\[5\].LATCH:D 0
139 *8:12 0
140 WORD\[5\].W.B1.BIT\[5\].LATCH:D 0
141 *8:16 0
142 WORD\[7\].W.B1.BIT\[5\].LATCH:D 0
*RES
160 *8:1 *8:2 4.857142857142857
161 WORD\[0\].W.B1.BIT\[5\].LATCH:D *8:3 3.2857142857142856
162 *8:4 *8:5 0.15178571428571427
163 *8:6 *8:7 2.1249999999999996
164 WORD\[2\].W.B1.BIT\[5\].LATCH:D *8:8 0.4107142857142857
165 *8:7 *8:9 2.7321428571428568
166 *8:10 *8:11 1.8737333333333337
167 WORD\[4\].W.B1.BIT\[5\].LATCH:D *8:12 0.4107142857142857
168 *8:13 *8:14 2.7321428571428568
169 *8:14 *8:15 2.1249999999999996
170 WORD\[6\].W.B1.BIT\[5\].LATCH:D *8:16 0.4107142857142857
171 *8:15 *8:17 2.7321428571428568
172 *8:17 *8:18 2.1249999999999996
173 *8:9 *8:13 2.1249999999999996
174 *8:2 *8:11 0
175 WORD\[0\].W.B1.BIT\[5\].LATCH:D WORD\[0\].W.B1.BIT\[5\].LATCH:D 0
176 *8:3 *8:4 0
177 *8:5 *8:10 0
178 WORD\[1\].W.B1.BIT\[5\].LATCH:D WORD\[1\].W.B1.BIT\[5\].LATCH:D 0
179 WORD\[1\].W.B1.BIT\[5\].LATCH:D *8:7 0
180 *8:19 *8:6 0
181 WORD\[2\].W.B1.BIT\[5\].LATCH:D WORD\[2\].W.B1.BIT\[5\].LATCH:D 0
182 *8:8 *8:9 0
183 WORD\[3\].W.B1.BIT\[5\].LATCH:D WORD\[3\].W.B1.BIT\[5\].LATCH:D 0
184 WORD\[3\].W.B1.BIT\[5\].LATCH:D *8:13 0
185 WORD\[4\].W.B1.BIT\[5\].LATCH:D WORD\[4\].W.B1.BIT\[5\].LATCH:D 0
186 *8:12 *8:14 0
187 WORD\[5\].W.B1.BIT\[5\].LATCH:D WORD\[5\].W.B1.BIT\[5\].LATCH:D 0
188 WORD\[5\].W.B1.BIT\[5\].LATCH:D *8:15 0
189 WORD\[6\].W.B1.BIT\[5\].LATCH:D WORD\[6\].W.B1.BIT\[5\].LATCH:D 0
190 *8:16 *8:17 0
191 WORD\[7\].W.B1.BIT\[5\].LATCH:D WORD\[7\].W.B1.BIT\[5\].LATCH:D 0
192 WORD\[7\].W.B1.BIT\[5\].LATCH:D *8:18 0
*END

*D_NET *9 0.0036562022066600015
*CONN
*P Di[14] I
*I WORD\[7\].W.B1.BIT\[6\].LATCH:D I
*I WORD\[6\].W.B1.BIT\[6\].LATCH:D I
*I WORD\[5\].W.B1.BIT\[6\].LATCH:D I
*I WORD\[4\].W.B1.BIT\[6\].LATCH:D I
*I WORD\[3\].W.B1.BIT\[6\].LATCH:D I
*I WORD\[2\].W.B1.BIT\[6\].LATCH:D I
*I WORD\[1\].W.B1.BIT\[6\].LATCH:D I
*I WORD\[0\].W.B1.BIT\[6\].LATCH:D I
*CAP
143 WORD\[0\].W.B1.BIT\[6\].LATCH:D 5.034052896000001e-05
144 *9:2 0.00016946796088000002
145 *9:4 0.00149266598048
146 *9:6 0.00026215696806
147 *9:3 0.00019595053436
148 WORD\[2\].W.B1.BIT\[6\].LATCH:D 5.034052896000001e-05
149 *9:8 0.00024891568132000004
150 WORD\[4\].W.B1.BIT\[6\].LATCH:D 5.034052896000001e-05
151 *9:12 0.00024891568132000004
152 *9:13 0.00019595053436
153 WORD\[6\].W.B1.BIT\[6\].LATCH:D 5.034052896000001e-05
154 *9:14 0.00024891568132000004
155 *9:16 0.00019595053436
156 *9:10 0.00019595053436
157 *9:1 0
158 *9:5 0
159 WORD\[1\].W.B1.BIT\[6\].LATCH:D 0
160 *9:9 0
161 WORD\[3\].W.B1.BIT\[6\].LATCH:D 0
162 *9:11 0
163 WORD\[5\].W.B1.BIT\[6\].LATCH:D 0
164 *9:15 0
165 WORD\[7\].W.B1.BIT\[6\].LATCH:D 0
*RES
193 WORD\[0\].W.B1.BIT\[6\].LATCH:D *9:1 0.4107142857142857
194 *9:2 *9:3 1.8214285714285714
195 *9:4 *9:5 15.607142857142856
196 *9:6 *9:7 2.883928571428571
197 *9:3 *9:8 2.1249999999999996
198 WORD\[2\].W.B1.BIT\[6\].LATCH:D *9:9 0.4107142857142857
199 *9:8 *9:10 2.7321428571428568
200 WORD\[4\].W.B1.BIT\[6\].LATCH:D *9:11 0.4107142857142857
201 *9:12 *9:13 2.7321428571428568
202 *9:13 *9:14 2.1249999999999996
203 WORD\[6\].W.B1.BIT\[6\].LATCH:D *9:15 0.4107142857142857
204 *9:14 *9:16 2.7321428571428568
205 *9:16 *9:17 2.1249999999999996
206 *9:10 *9:12 2.1249999999999996
207 WORD\[0\].W.B1.BIT\[6\].LATCH:D WORD\[0\].W.B1.BIT\[6\].LATCH:D 0
208 *9:1 *9:3 0
209 *9:4 *9:2 0
210 *9:5 *9:7 0
211 WORD\[1\].W.B1.BIT\[6\].LATCH:D WORD\[1\].W.B1.BIT\[6\].LATCH:D 0
212 WORD\[1\].W.B1.BIT\[6\].LATCH:D *9:8 0
213 WORD\[2\].W.B1.BIT\[6\].LATCH:D WORD\[2\].W.B1.BIT\[6\].LATCH:D 0
214 *9:9 *9:10 0
215 WORD\[3\].W.B1.BIT\[6\].LATCH:D WORD\[3\].W.B1.BIT\[6\].LATCH:D 0
216 WORD\[3\].W.B1.BIT\[6\].LATCH:D *9:12 0
217 WORD\[4\].W.B1.BIT\[6\].LATCH:D WORD\[4\].W.B1.BIT\[6\].LATCH:D 0
218 *9:11 *9:13 0
219 WORD\[5\].W.B1.BIT\[6\].LATCH:D WORD\[5\].W.B1.BIT\[6\].LATCH:D 0
220 WORD\[5\].W.B1.BIT\[6\].LATCH:D *9:14 0
221 WORD\[6\].W.B1.BIT\[6\].LATCH:D WORD\[6\].W.B1.BIT\[6\].LATCH:D 0
222 *9:15 *9:16 0
223 WORD\[7\].W.B1.BIT\[6\].LATCH:D WORD\[7\].W.B1.BIT\[6\].LATCH:D 0
224 WORD\[7\].W.B1.BIT\[6\].LATCH:D *9:17 0
*END
